<configuration>
  <input>
    <net-file value="map.net.xml" />
    <route-files value="map.rou.xml" />
    <additional-files value="rerouter.add.xml" />
  </input>
  <time>
    <begin value="0" />
    <end value="4000" />
  </time>
   <output>
     <fcd-output value="map.output.xml" />
   </output>
</configuration>