<?xml version="1.0" encoding="UTF-8"?>

<!-- generated on 2023-07-14 16:24:05 by Eclipse SUMO jtrrouter Version 1.18.0
<configuration xmlns:xsi="http://www.w3.org/2001/XMLSchema-instance" xsi:noNamespaceSchemaLocation="http://sumo.dlr.de/xsd/jtrrouterConfiguration.xsd">

    <input>
        <net-file value="map.net.xml"/>
        <route-files value="map.xml"/>
    </input>

    <output>
        <output-file value="map.rou.xml"/>
    </output>

    <processing>
        <accept-all-destinations value="true"/>
    </processing>

    <time>
        <begin value="0"/>
        <end value="4000"/>
    </time>

</configuration>
-->

<routes xmlns:xsi="http://www.w3.org/2001/XMLSchema-instance" xsi:noNamespaceSchemaLocation="http://sumo.dlr.de/xsd/routes_file.xsd">
    <vehicle id="0.0" depart="0.00">
        <route edges="5670252#0 -577976192#8 5670774#4 -420590061 5671685#0 5671685#1 196116967#3 196116967#4 196116967#5 5671119#3 5671119#4"/>
    </vehicle>
    <vehicle id="1.0" depart="0.00">
        <route edges="165473832#1 -577976192#4"/>
    </vehicle>
    <vehicle id="10.0" depart="0.00">
        <route edges="5671685#1 196116967#3 196116967#4 196116967#5 5671119#3 5671119#4"/>
    </vehicle>
    <vehicle id="100.0" depart="0.00">
        <route edges="577976192#6 577976192#7 5670774#4 -420590061 5671685#0 5671685#1 196116967#3 5670774#3 -577976192#7 -577976192#6 5673106#4 -420590065 -165473832#0 165473832#0 165473832#1 577976192#5"/>
    </vehicle>
    <vehicle id="101.0" depart="0.00">
        <route edges="5672585#1 196116967#7 254594899"/>
    </vehicle>
    <vehicle id="102.0" depart="0.00">
        <route edges="243056524#0 -577976192#3"/>
    </vehicle>
    <vehicle id="103.0" depart="0.00">
        <route edges="196116967#9 196116967#10 -196116967#10 5670656"/>
    </vehicle>
    <vehicle id="104.0" depart="0.00">
        <route edges="196116967#7 254594899"/>
    </vehicle>
    <vehicle id="105.0" depart="0.00">
        <route edges="165473832#0 -420590067 420590067 -165473832#0"/>
    </vehicle>
    <vehicle id="106.0" depart="0.00">
        <route edges="223503127#5 223503127#6 223503127#8 223503127#9"/>
    </vehicle>
    <vehicle id="107.0" depart="0.00">
        <route edges="577976192#5 5673106#4 -420590065 165473832#1 165473832#2 196116967#1 196116967#2 196116967#3 196116967#4 5670252#2 5670252#4"/>
    </vehicle>
    <vehicle id="108.0" depart="0.00">
        <route edges="524558206#0 524558206#1 5671685#4"/>
    </vehicle>
    <vehicle id="109.0" depart="0.00">
        <route edges="-420590061 -420590046 -420590065 -420590067 420590067 -165473832#0 165473832#0 165473832#1 165473832#2"/>
    </vehicle>
    <vehicle id="11.0" depart="0.00">
        <route edges="196116967#3 5670774#3 -577976192#7 5671685#1 5671685#2 223503127#5 223503127#6 223503127#8 223503127#9"/>
    </vehicle>
    <vehicle id="110.0" depart="0.00">
        <route edges="577976192#6 577976192#7 5670774#4 -420590061 -420590046 -420590065 165473832#1 577976192#5 5673106#4"/>
    </vehicle>
    <vehicle id="111.0" depart="0.00">
        <route edges="455687907#0 5671137#1 5671137#2 5671137#4"/>
    </vehicle>
    <vehicle id="112.0" depart="0.00">
        <route edges="-196116967#10 -196116967#9 -196116967#8 -196116967#7 -196116967#6 -196116967#5 5670252#2 223503127#3 5670774#2 5670774#3 5670774#4 -420590061 5671685#0 5671685#1 196116967#3 196116967#4 196116967#5 196116967#6 196116967#7 254594899"/>
    </vehicle>
    <vehicle id="113.0" depart="0.00">
        <route edges="243056524#1 542225570 5671137#2 223503127#9"/>
    </vehicle>
    <vehicle id="114.0" depart="0.00">
        <route edges="-420590061 -420590046 -420590065 165473832#1 165473832#2 165473832#3 524558206#0 5673106#2 5673106#3 5673106#4"/>
    </vehicle>
    <vehicle id="115.0" depart="0.00">
        <route edges="-196116967#3 -196116967#2 -196116967#1 -196116967#0 542225570 243056525#0"/>
    </vehicle>
    <vehicle id="116.0" depart="0.00">
        <route edges="524558206#3 5670252#4"/>
    </vehicle>
    <vehicle id="117.0" depart="0.00">
        <route edges="-577976192#7 5671685#1 -196116967#2 -196116967#1 -196116967#0 542225570 5671137#2 223503127#9"/>
    </vehicle>
    <vehicle id="118.0" depart="0.00">
        <route edges="5673106#3 577976192#6 5671685#1 196116967#3 196116967#4 196116967#5 196116967#6 196116967#7 196116967#8 196116967#9 5670656"/>
    </vehicle>
    <vehicle id="119.0" depart="0.00">
        <route edges="524558206#3 524558206#4"/>
    </vehicle>
    <vehicle id="12.0" depart="0.00">
        <route edges="577976192#5 577976192#6 5671685#1 5671685#2 524558206#2 524558206#3 5670252#4"/>
    </vehicle>
    <vehicle id="120.0" depart="0.00">
        <route edges="223503127#1 5671119#2 196116967#6 196116967#7 254594899"/>
    </vehicle>
    <vehicle id="121.0" depart="0.00">
        <route edges="455684726#0 5671921#3"/>
    </vehicle>
    <vehicle id="122.0" depart="0.00">
        <route edges="-577976192#4 -577976192#3 5671137#0 -455687907#2 455687907#0 455687907#3 196116967#0 196116967#1 5673106#3 -577976192#5 -165473832#1 -165473832#0 165473832#0 165473832#1 165473832#2 165473832#3 524558206#0 524558206#1 5671685#4"/>
    </vehicle>
    <vehicle id="123.0" depart="0.00">
        <route edges="-577976192#7 5671685#1 -196116967#2 -196116967#1 -165473832#2 -165473832#1 -420590067 420590067 -165473832#0 165473832#0 165473832#1 165473832#2 165473832#3 524558206#0 5673106#2 5673106#3 577976192#6 577976192#7 577976192#8 577976192#9 577976192#10 5672585#1 196116967#7"/>
    </vehicle>
    <vehicle id="124.0" depart="0.00">
        <route edges="5670774#0 223503127#4 5671685#4"/>
    </vehicle>
    <vehicle id="125.0" depart="0.00">
        <route edges="196116967#1 5673106#3 577976192#6 577976192#7 5670774#4 -420590061 5671685#0 5671685#1 196116967#3 196116967#4 196116967#5 196116967#6 5672585#2 5672585#4"/>
    </vehicle>
    <vehicle id="126.0" depart="0.00">
        <route edges="-196116967#3 5671685#2 524558206#2 524558206#3 524558206#4 524558206#5 5672585#4"/>
    </vehicle>
    <vehicle id="127.0" depart="0.00">
        <route edges="577976192#9"/>
    </vehicle>
    <vehicle id="128.0" depart="0.00">
        <route edges="-196116967#3 -196116967#2 -196116967#1 -196116967#0 542225570 243056525#0"/>
    </vehicle>
    <vehicle id="129.0" depart="0.00">
        <route edges="165473832#0 165473832#1 165473832#2 165473832#3 524558206#0 524558206#1 524558206#2 524558206#3 524558206#4 5671119#2 5671119#3 -577976192#9 -577976192#8 -577976192#7 5671685#1 -196116967#2 5673106#3 -577976192#5 -165473832#1 -420590067 420590067 -165473832#0"/>
    </vehicle>
    <vehicle id="13.0" depart="0.00">
        <route edges="-196116967#5 5670252#2 5670252#4"/>
    </vehicle>
    <vehicle id="130.0" depart="0.00">
        <route edges="5673106#2 5673106#3 5673106#4 -420590065 -420590067 420590067 -165473832#0 165473832#0 165473832#1 165473832#2 196116967#1 196116967#2 196116967#3 196116967#4 196116967#5 5671119#3 -577976192#9 5670252#1 -196116967#4 -196116967#3 -196116967#2 -196116967#1 -196116967#0 -455687907#3 -455687907#2 455687907#0 455687907#3 196116967#0 165473832#3 524558206#0 524558206#1 524558206#2 5670774#2 5670774#3 -577976192#7 -577976192#6 -577976192#5 -577976192#4 243056524#1 542225570 243056525#0"/>
    </vehicle>
    <vehicle id="131.0" depart="0.00">
        <route edges="196116967#6 196116967#7 254594899"/>
    </vehicle>
    <vehicle id="132.0" depart="0.00">
        <route edges="5671921#2 5671921#3"/>
    </vehicle>
    <vehicle id="133.0" depart="0.00">
        <route edges="524558206#5 5672585#4"/>
    </vehicle>
    <vehicle id="134.0" depart="0.00">
        <route edges="5670252#1 5670252#2 5670252#4"/>
    </vehicle>
    <vehicle id="135.0" depart="0.00">
        <route edges="5671685#2 524558206#2 524558206#3 524558206#4 5671119#2 -196116967#5 5670252#2 223503127#3 5670774#2 196116967#4 196116967#5 196116967#6 196116967#7 254594899"/>
    </vehicle>
    <vehicle id="136.0" depart="0.00">
        <route edges="5670252#2 5670252#4"/>
    </vehicle>
    <vehicle id="137.0" depart="0.00">
        <route edges="-196116967#9 -196116967#8"/>
    </vehicle>
    <vehicle id="138.0" depart="0.00">
        <route edges="-196116967#6 5671119#3 577976192#10 5672585#1 5672585#2 5672585#4"/>
    </vehicle>
    <vehicle id="139.0" depart="0.00">
        <route edges="165473832#0 -420590067 420590067 165473832#1 165473832#2 196116967#1 5673106#3 577976192#6 5671685#1 5671685#2 524558206#2 524558206#3"/>
    </vehicle>
    <vehicle id="14.0" depart="0.00">
        <route edges="5672585#0 5672585#1 196116967#7 196116967#8 5671921#2 455684726#1"/>
    </vehicle>
    <vehicle id="140.0" depart="0.00">
        <route edges="5671119#2 -196116967#5 5670252#2 524558206#4 524558206#5 524558206#6 455684726#0 5671921#3"/>
    </vehicle>
    <vehicle id="141.0" depart="0.00">
        <route edges="542225570 243056525#0"/>
    </vehicle>
    <vehicle id="142.0" depart="0.00">
        <route edges="243056524#0 577976192#4 577976192#5 577976192#6 5671685#1 196116967#3 196116967#4 196116967#5 196116967#6 196116967#7 254594899"/>
    </vehicle>
    <vehicle id="143.0" depart="0.00">
        <route edges="5672585#0 5672585#1 196116967#7 254594899"/>
    </vehicle>
    <vehicle id="144.0" depart="0.00">
        <route edges="223503127#1 223503127#2 5670252#4"/>
    </vehicle>
    <vehicle id="145.0" depart="0.00">
        <route edges="-165473832#1 -165473832#0 165473832#0 -420590067 420590067 165473832#1 -577976192#4 243056524#1 196116967#0 196116967#1 5673106#3 577976192#6 577976192#7 5670774#4 -420590061 5671685#0 -577976192#6 5673106#4 -420590065"/>
    </vehicle>
    <vehicle id="146.0" depart="0.00">
        <route edges="5670252#0 -577976192#8"/>
    </vehicle>
    <vehicle id="147.0" depart="0.00">
        <route edges="5671137#0 -455687907#2 455687907#0 5671137#1 5671137#2 223503127#9"/>
    </vehicle>
    <vehicle id="148.0" depart="0.00">
        <route edges="223503127#2 5670252#4"/>
    </vehicle>
    <vehicle id="149.0" depart="0.00">
        <route edges="-196116967#3 5671685#2 223503127#5 5673106#2 5673106#3 577976192#6 577976192#7 577976192#8 577976192#9 5671119#4"/>
    </vehicle>
    <vehicle id="15.0" depart="0.00">
        <route edges="5671685#1 5671685#2 223503127#5 223503127#6 223503127#8 5671137#4"/>
    </vehicle>
    <vehicle id="150.0" depart="0.00">
        <route edges="5673106#4 -420590065 -165473832#0 165473832#0 -420590067 420590067 165473832#1 577976192#5 577976192#6 5671685#1 5671685#2 5671685#4"/>
    </vehicle>
    <vehicle id="151.0" depart="0.00">
        <route edges="5671921#2 455684726#1"/>
    </vehicle>
    <vehicle id="152.0" depart="0.00">
        <route edges="-420590046 -420590065 -420590067 420590067 -165473832#0 165473832#0 165473832#1 577976192#5 5673106#4"/>
    </vehicle>
    <vehicle id="153.0" depart="0.00">
        <route edges="196116967#0 -165473832#2 577976192#5 577976192#6 577976192#7 577976192#8 577976192#9 5671119#4"/>
    </vehicle>
    <vehicle id="154.0" depart="0.00">
        <route edges="5671685#0 577976192#7 577976192#8 577976192#9 577976192#10 5672585#1"/>
    </vehicle>
    <vehicle id="155.0" depart="0.00">
        <route edges="5673106#3 -577976192#5 165473832#2 -196116967#0 -455687907#3 -455687907#2 455687907#0 5671137#1 5671137#2 223503127#9"/>
    </vehicle>
    <vehicle id="156.0" depart="0.00">
        <route edges="-577976192#8 5670774#4 -420590061 5671685#0 -577976192#6 5673106#4 -420590065 165473832#1 577976192#5 577976192#6 5671685#1 5671685#2 223503127#5 223503127#6 223503127#8 5671137#4"/>
    </vehicle>
    <vehicle id="157.0" depart="0.00">
        <route edges="5671257#1 -455687907#3 5671137#1 5671137#2 5671137#4"/>
    </vehicle>
    <vehicle id="158.0" depart="0.00">
        <route edges="223503127#0 223503127#1 5671119#2 5671119#3 5671119#4"/>
    </vehicle>
    <vehicle id="159.0" depart="0.00">
        <route edges="-420590061 -420590046 -420590065 -420590067 420590067 -165473832#0 165473832#0 165473832#1 -577976192#4 243056524#1 542225570 5671137#2 223503127#9"/>
    </vehicle>
    <vehicle id="16.0" depart="0.00">
        <route edges="455687907#0 455687907#3 196116967#0 196116967#1 196116967#2 196116967#3 196116967#4 196116967#5 196116967#6 5672585#2 5672585#4"/>
    </vehicle>
    <vehicle id="160.0" depart="0.00">
        <route edges="5672585#2 524558206#6 223503127#0 223503127#1 223503127#2 5670252#4"/>
    </vehicle>
    <vehicle id="161.0" depart="0.00">
        <route edges="5671685#2 5671685#4"/>
    </vehicle>
    <vehicle id="162.0" depart="0.00">
        <route edges="-165473832#3 196116967#1 196116967#2 5671685#2 5671685#4"/>
    </vehicle>
    <vehicle id="163.0" depart="0.00">
        <route edges="196116967#2 5671685#2 524558206#2 524558206#3 5670252#4"/>
    </vehicle>
    <vehicle id="164.0" depart="0.00">
        <route edges="5671685#1 -196116967#2 5673106#3 5673106#4 -420590065 -165473832#0 165473832#0 -420590067 420590067 165473832#1 577976192#5 577976192#6 577976192#7 577976192#8 577976192#9 5671119#4"/>
    </vehicle>
    <vehicle id="165.0" depart="0.00">
        <route edges="5671685#2 5671685#4"/>
    </vehicle>
    <vehicle id="166.0" depart="0.00">
        <route edges="5671257#1 -455687907#3 -455687907#2 455687907#0 455687907#3 196116967#0 -165473832#2 -165473832#1 -165473832#0 165473832#0 -420590067 420590067 165473832#1 577976192#5 5673106#4 -420590065"/>
    </vehicle>
    <vehicle id="167.0" depart="0.00">
        <route edges="5673106#0 223503127#6 223503127#8 223503127#9"/>
    </vehicle>
    <vehicle id="168.0" depart="0.00">
        <route edges="-577976192#6 -577976192#5 -577976192#4 243056524#1 542225570 5671137#2 5671137#4"/>
    </vehicle>
    <vehicle id="169.0" depart="0.00">
        <route edges="223503127#5 223503127#6 5671257#1 542225570 5671137#2 223503127#9"/>
    </vehicle>
    <vehicle id="17.0" depart="0.00">
        <route edges="196116967#7 196116967#8 196116967#9 5670656"/>
    </vehicle>
    <vehicle id="170.0" depart="0.00">
        <route edges="5671685#0 -577976192#6 -577976192#5 -577976192#4"/>
    </vehicle>
    <vehicle id="171.0" depart="0.00">
        <route edges="-165473832#3 -196116967#0 542225570 243056525#0"/>
    </vehicle>
    <vehicle id="172.0" depart="0.00">
        <route edges="196116967#2 196116967#3 5670774#3 5670774#4 -420590061 5671685#0 5671685#1 5671685#2 5671685#4"/>
    </vehicle>
    <vehicle id="173.0" depart="0.00">
        <route edges="577976192#6 5671685#1 196116967#3 5670774#3 5670774#4 -420590061 5671685#0 577976192#7 577976192#8 5670252#1 196116967#5 196116967#6 196116967#7 196116967#8 196116967#9 196116967#10 -196116967#10 -196116967#9 -196116967#8 -196116967#7 5672585#2 5672585#4"/>
    </vehicle>
    <vehicle id="174.0" depart="0.00">
        <route edges="5670252#0 5670252#1 5670252#2 524558206#4 524558206#5 5672585#4"/>
    </vehicle>
    <vehicle id="175.0" depart="0.00">
        <route edges="577976192#8 5670252#1 5670252#2 223503127#3 223503127#4 5671685#4"/>
    </vehicle>
    <vehicle id="176.0" depart="0.00">
        <route edges="577976192#3 243056524#1 542225570 243056525#0"/>
    </vehicle>
    <vehicle id="177.0" depart="0.00">
        <route edges="577976192#7 577976192#8 577976192#9 5671119#4"/>
    </vehicle>
    <vehicle id="178.0" depart="0.00">
        <route edges="577976192#6 577976192#7 577976192#8 577976192#9 5671119#4"/>
    </vehicle>
    <vehicle id="179.0" depart="0.00">
        <route edges="-196116967#6 -196116967#5 -196116967#4 5670774#3 577976192#8 5670252#1 5670252#2 223503127#3 5670774#2 196116967#4 196116967#5 5671119#3 577976192#10 5672585#1 5672585#2 524558206#6 223503127#0 5672585#4"/>
    </vehicle>
    <vehicle id="18.0" depart="0.00">
        <route edges="5671921#2 455684726#1"/>
    </vehicle>
    <vehicle id="180.0" depart="0.00">
        <route edges="5671119#3 -577976192#9 -577976192#8 -577976192#7 5671685#1 5671685#2 5671685#4"/>
    </vehicle>
    <vehicle id="181.0" depart="0.00">
        <route edges="524558206#5 524558206#6 455684726#0 455684726#1"/>
    </vehicle>
    <vehicle id="182.0" depart="0.00">
        <route edges="196116967#8 196116967#9 5670656"/>
    </vehicle>
    <vehicle id="183.0" depart="0.00">
        <route edges="-577976192#9 -577976192#8 5670774#4 -420590061 5671685#0 5671685#1 196116967#3 5670774#3"/>
    </vehicle>
    <vehicle id="184.0" depart="0.00">
        <route edges="-165473832#1 -165473832#0 165473832#0 165473832#1 -577976192#4 -577976192#3 -577976192#2 577976192#0 577976192#3 243056524#1 -455687907#3 5671137#1 243056525#0"/>
    </vehicle>
    <vehicle id="185.0" depart="0.00">
        <route edges="455687907#0 455687907#3 196116967#0 165473832#3 524558206#0 524558206#1 5671685#4"/>
    </vehicle>
    <vehicle id="186.0" depart="0.00">
        <route edges="5671137#0 -455687907#2 455687907#0 5671137#1 5671137#2 5671137#4"/>
    </vehicle>
    <vehicle id="187.0" depart="0.00">
        <route edges="196116967#6 5672585#2 5672585#4"/>
    </vehicle>
    <vehicle id="188.0" depart="0.00">
        <route edges="5670252#2 5670252#4"/>
    </vehicle>
    <vehicle id="189.0" depart="0.00">
        <route edges="196116967#1 5673106#3 5673106#4 -420590065 165473832#1 577976192#5 577976192#6 5671685#1 5671685#2 223503127#5 223503127#6 223503127#8 5671137#4"/>
    </vehicle>
    <vehicle id="19.0" depart="0.00">
        <route edges="5672585#2 524558206#6 455684726#0 455684726#1"/>
    </vehicle>
    <vehicle id="190.0" depart="0.00">
        <route edges="5671119#2 196116967#6 196116967#7 254594899"/>
    </vehicle>
    <vehicle id="191.0" depart="0.00">
        <route edges="196116967#0 165473832#3 524558206#0 524558206#1 5671685#4"/>
    </vehicle>
    <vehicle id="192.0" depart="0.00">
        <route edges="196116967#9 196116967#10 -196116967#10 5670656"/>
    </vehicle>
    <vehicle id="193.0" depart="0.00">
        <route edges="-196116967#8 254594899"/>
    </vehicle>
    <vehicle id="194.0" depart="0.00">
        <route edges="577976192#4 -165473832#1 -165473832#0 165473832#0 -420590067 420590067 165473832#1 165473832#2 196116967#1 196116967#2 196116967#3 5670774#3 -577976192#7 -577976192#6 -577976192#5 -577976192#4 243056524#1 542225570 5671137#2 223503127#9"/>
    </vehicle>
    <vehicle id="195.0" depart="0.00">
        <route edges="5673106#4 -420590065 -165473832#0 165473832#0 165473832#1 165473832#2 196116967#1 5673106#3 -577976192#5 -577976192#4 243056524#1 542225570 243056525#0"/>
    </vehicle>
    <vehicle id="196.0" depart="0.00">
        <route edges="165473832#3 524558206#0 5673106#2 196116967#2 196116967#3 5670774#3 5670774#4 -420590061 -420590046 -420590065 -420590067 420590067 165473832#1 165473832#2 -196116967#0 542225570 5671137#2 5671137#4"/>
    </vehicle>
    <vehicle id="197.0" depart="0.00">
        <route edges="-165473832#1 -165473832#0 165473832#0 165473832#1"/>
    </vehicle>
    <vehicle id="198.0" depart="0.00">
        <route edges="223503127#2 223503127#3 223503127#4 5671685#4"/>
    </vehicle>
    <vehicle id="199.0" depart="0.00">
        <route edges="5670252#1 5670252#2 524558206#4 5671119#2 196116967#6 196116967#7 254594899"/>
    </vehicle>
    <vehicle id="2.0" depart="0.00">
        <route edges="5671119#3 577976192#10 5672585#1 5672585#2 5672585#4"/>
    </vehicle>
    <vehicle id="20.0" depart="0.00">
        <route edges="5670774#4 -420590061 5671685#0 5671685#1 5671685#2 524558206#2 524558206#3 524558206#4 524558206#5 5672585#4"/>
    </vehicle>
    <vehicle id="21.0" depart="0.00">
        <route edges="-577976192#6 -577976192#5 -577976192#4 -577976192#3 5671137#0 5671137#1 5671137#2 5671137#4"/>
    </vehicle>
    <vehicle id="22.0" depart="0.00">
        <route edges="-196116967#3 5671685#2 524558206#2 524558206#3 5670252#4"/>
    </vehicle>
    <vehicle id="23.0" depart="0.00">
        <route edges="-196116967#5 -196116967#4 -196116967#3 -196116967#2 5673106#3 577976192#6 577976192#7 5670774#4 -420590061 5671685#0 5671685#1 5671685#2 524558206#2 524558206#3 524558206#4 5671119#2 196116967#6 5672585#2 223503127#1 223503127#2 223503127#3 223503127#4 5671685#4"/>
    </vehicle>
    <vehicle id="24.0" depart="0.00">
        <route edges="542225570 243056525#0"/>
    </vehicle>
    <vehicle id="25.0" depart="0.00">
        <route edges="196116967#6 196116967#7 196116967#8 5671921#2 455684726#1"/>
    </vehicle>
    <vehicle id="26.0" depart="0.00">
        <route edges="165473832#0 -420590067 420590067 165473832#1 577976192#5 5673106#4 -420590065 -165473832#0"/>
    </vehicle>
    <vehicle id="27.0" depart="0.00">
        <route edges="5670252#1 5670252#2 5670252#4"/>
    </vehicle>
    <vehicle id="28.0" depart="0.00">
        <route edges="-420590065 -165473832#0 165473832#0 165473832#1 577976192#5 5673106#4"/>
    </vehicle>
    <vehicle id="29.0" depart="0.00">
        <route edges="-420590065 -420590067 420590067 165473832#1 165473832#2 -196116967#0 -455687907#3 5671137#1 5671137#2 5671137#4"/>
    </vehicle>
    <vehicle id="3.0" depart="0.00">
        <route edges="5673106#3 5673106#4 -420590065 -420590067 420590067 165473832#1 165473832#2 196116967#1 196116967#2 196116967#3 196116967#4 5670252#2 524558206#4 524558206#5 524558206#6 455684727 196116967#8 196116967#9 196116967#10 -196116967#10 -196116967#9 5671921#2 455684726#1"/>
    </vehicle>
    <vehicle id="30.0" depart="0.00">
        <route edges="577976192#8 577976192#9 577976192#10 5672585#1 -196116967#6 -196116967#5 -196116967#4 -196116967#3 -196116967#2 5673106#3 5673106#4 -420590065 -420590067 420590067 -165473832#0 165473832#0 165473832#1 165473832#2 165473832#3 524558206#0 524558206#1 524558206#2 524558206#3 5670252#4"/>
    </vehicle>
    <vehicle id="31.0" depart="0.00">
        <route edges="524558206#0 524558206#1 524558206#2 5670774#2 5670774#3 -577976192#7 -577976192#6 -577976192#5 -577976192#4 243056524#1 196116967#0 196116967#1 196116967#2 196116967#3 196116967#4 196116967#5 196116967#6 5672585#2 524558206#6 455684727 254594899"/>
    </vehicle>
    <vehicle id="32.0" depart="0.00">
        <route edges="5672585#0 -577976192#10 -577976192#9 5670252#1 5670252#2 5670252#4"/>
    </vehicle>
    <vehicle id="33.0" depart="0.00">
        <route edges="-577976192#6 -577976192#5 -577976192#4 243056524#1 -455687907#3 5671137#1 243056525#0"/>
    </vehicle>
    <vehicle id="34.0" depart="0.00">
        <route edges="196116967#1 5673106#3 5673106#4 -420590065 -420590067 420590067 -165473832#0 165473832#0 165473832#1 165473832#2 165473832#3 524558206#0 5673106#2 196116967#2 5671685#2 5671685#4"/>
    </vehicle>
    <vehicle id="35.0" depart="0.00">
        <route edges="-577976192#4 -577976192#3 -577976192#2 577976192#0 577976192#3 577976192#4"/>
    </vehicle>
    <vehicle id="36.0" depart="0.00">
        <route edges="5673106#0 223503127#6 5671257#1 542225570 5671137#2 5671137#4"/>
    </vehicle>
    <vehicle id="37.0" depart="0.00">
        <route edges="5670252#1 5670252#2 524558206#4 5671119#2 5671119#3 5671119#4"/>
    </vehicle>
    <vehicle id="38.0" depart="0.00">
        <route edges="577976192#0 5671137#0 -455687907#2 455687907#0 455687907#3 196116967#0 165473832#3 524558206#0 5673106#2 -196116967#1 -196116967#0 542225570 243056525#0"/>
    </vehicle>
    <vehicle id="39.0" depart="0.00">
        <route edges="165473832#0 -420590067 420590067 -165473832#0"/>
    </vehicle>
    <vehicle id="4.0" depart="0.00">
        <route edges="223503127#1 223503127#2 5670252#4"/>
    </vehicle>
    <vehicle id="40.0" depart="0.00">
        <route edges="524558206#0 5673106#2 5673106#3 -577976192#5 165473832#2 165473832#3"/>
    </vehicle>
    <vehicle id="41.0" depart="0.00">
        <route edges="524558206#2 524558206#3 524558206#4 524558206#5 5672585#4"/>
    </vehicle>
    <vehicle id="42.0" depart="0.00">
        <route edges="196116967#9 196116967#10 -196116967#10 5670656"/>
    </vehicle>
    <vehicle id="43.0" depart="0.00">
        <route edges="577976192#9 5671119#4"/>
    </vehicle>
    <vehicle id="44.0" depart="0.00">
        <route edges="-196116967#5 5670252#2 5670252#4"/>
    </vehicle>
    <vehicle id="45.0" depart="0.00">
        <route edges="-196116967#6 5671119#3 5671119#4"/>
    </vehicle>
    <vehicle id="46.0" depart="0.00">
        <route edges="5671685#0 577976192#7 5670774#4 -420590061 -420590046 -420590065 -165473832#0 165473832#0 165473832#1 165473832#2 165473832#3 524558206#0 524558206#1 524558206#2 524558206#3 5670252#4"/>
    </vehicle>
    <vehicle id="47.0" depart="0.00">
        <route edges="-196116967#2 -196116967#1 165473832#3 524558206#0 5673106#2 5673106#3 5673106#4 -420590065 165473832#1 165473832#2 -196116967#0 542225570 5671137#2 223503127#9"/>
    </vehicle>
    <vehicle id="48.0" depart="0.00">
        <route edges="577976192#9 5671119#4"/>
    </vehicle>
    <vehicle id="49.0" depart="0.00">
        <route edges="577976192#7 577976192#8 5670252#1 -196116967#4 5670774#3 -577976192#7 5671685#1 -196116967#2 -196116967#1 165473832#3 524558206#0 524558206#1 524558206#2 524558206#3 5670252#4"/>
    </vehicle>
    <vehicle id="5.0" depart="0.00">
        <route edges="-577976192#5 -577976192#4 243056524#1"/>
    </vehicle>
    <vehicle id="50.0" depart="0.00">
        <route edges="-165473832#2 -577976192#4 -577976192#3 -577976192#2 577976192#0 577976192#3 577976192#4 577976192#5 5673106#4 -420590065 -420590067 420590067 165473832#1 165473832#2 -196116967#0 542225570 5671137#2 223503127#9"/>
    </vehicle>
    <vehicle id="51.0" depart="0.00">
        <route edges="5670774#2 -196116967#3 -196116967#2 -196116967#1 165473832#3 524558206#0 5673106#2 5673106#3 -577976192#5 -577976192#4 243056524#1 196116967#0 -165473832#2 -165473832#1 -165473832#0 165473832#0 -420590067 420590067 165473832#1 577976192#5 577976192#6 577976192#7 577976192#8 577976192#9 5671119#4"/>
    </vehicle>
    <vehicle id="52.0" depart="0.00">
        <route edges="165473832#0 165473832#1 165473832#2 196116967#1 196116967#2 196116967#3 196116967#4 196116967#5 5671119#3 -577976192#9 -577976192#8 5670774#4 -420590061 5671685#0 577976192#7 577976192#8 5670252#1 5670252#2 5670252#4"/>
    </vehicle>
    <vehicle id="53.0" depart="0.00">
        <route edges="-196116967#7 5672585#2 5672585#4"/>
    </vehicle>
    <vehicle id="54.0" depart="0.00">
        <route edges="223503127#4 223503127#5 223503127#6 223503127#8 223503127#9"/>
    </vehicle>
    <vehicle id="55.0" depart="0.00">
        <route edges="5673106#0 5673106#2 196116967#2 5671685#2 524558206#2 524558206#3 5670252#4"/>
    </vehicle>
    <vehicle id="56.0" depart="0.00">
        <route edges="243056524#1 542225570 243056525#0"/>
    </vehicle>
    <vehicle id="57.0" depart="0.00">
        <route edges="577976192#0 577976192#3 577976192#4 165473832#2 165473832#3 524558206#0 524558206#1 524558206#2 524558206#3 5670252#4"/>
    </vehicle>
    <vehicle id="58.0" depart="0.00">
        <route edges="165473832#3 524558206#0 5673106#2 196116967#2 5671685#2 524558206#2 5670774#2 -196116967#3 -196116967#2 -196116967#1 -196116967#0 -455687907#3 5671137#1 243056525#0"/>
    </vehicle>
    <vehicle id="59.0" depart="0.00">
        <route edges="524558206#5 5672585#4"/>
    </vehicle>
    <vehicle id="6.0" depart="0.00">
        <route edges="-165473832#3 -165473832#2 -165473832#1 -165473832#0 165473832#0 165473832#1 577976192#5 5673106#4 -420590065 -420590067 420590067"/>
    </vehicle>
    <vehicle id="60.0" depart="0.00">
        <route edges="5671137#2 5671137#4"/>
    </vehicle>
    <vehicle id="61.0" depart="0.00">
        <route edges="5671257#1 -455687907#3 5671137#1 243056525#0"/>
    </vehicle>
    <vehicle id="62.0" depart="0.00">
        <route edges="-165473832#1 -165473832#0 165473832#0 -420590067 420590067 165473832#1 577976192#5 577976192#6 5671685#1 5671685#2 5671685#4"/>
    </vehicle>
    <vehicle id="63.0" depart="0.00">
        <route edges="-165473832#2 577976192#5 577976192#6 577976192#7 5670774#4 -420590061 -420590046 -420590065 165473832#1 165473832#2 196116967#1 196116967#2 5671685#2 524558206#2 524558206#3 524558206#4 5671119#2 5671119#3 -577976192#9 -577976192#8 -577976192#7 -577976192#6 5673106#4"/>
    </vehicle>
    <vehicle id="64.0" depart="0.00">
        <route edges="5673106#0 5673106#2 196116967#2 196116967#3 196116967#4 5670252#2 223503127#3 223503127#4 5671685#4"/>
    </vehicle>
    <vehicle id="65.0" depart="0.00">
        <route edges="196116967#0 196116967#1 196116967#2 196116967#3 5670774#3 -577976192#7 -577976192#6 5673106#4 -420590065 -420590067 420590067 165473832#1 577976192#5 577976192#6 577976192#7 5670774#4 -420590061 5671685#0 5671685#1 -196116967#2"/>
    </vehicle>
    <vehicle id="66.0" depart="0.00">
        <route edges="5673106#0 5673106#2 5673106#3 -577976192#5 -577976192#4 243056524#1 -455687907#3 -455687907#2 455687907#0 455687907#3 196116967#0 -165473832#2 -165473832#1 -165473832#0 165473832#0 165473832#1 577976192#5 577976192#6 577976192#7 577976192#8 5670252#1 5670252#2 5670252#4"/>
    </vehicle>
    <vehicle id="67.0" depart="0.00">
        <route edges="-196116967#4 -196116967#3 5671685#2 223503127#5 223503127#6 5671257#1 -455687907#3 -455687907#2 455687907#0 455687907#3 196116967#0 -165473832#2 -577976192#4 243056524#1 542225570 243056525#0"/>
    </vehicle>
    <vehicle id="68.0" depart="0.00">
        <route edges="-196116967#2 5673106#3 5673106#4 -420590065 -165473832#0 165473832#0 165473832#1 165473832#2 -196116967#0 542225570 243056525#0"/>
    </vehicle>
    <vehicle id="69.0" depart="0.00">
        <route edges="5671137#2 5671137#4"/>
    </vehicle>
    <vehicle id="7.0" depart="0.00">
        <route edges="5670252#1 5670252#2 524558206#4 5671119#2 -196116967#5 -196116967#4 -196116967#3 -196116967#2 5673106#3 -577976192#5 -577976192#4 243056524#1 542225570 5671137#2 5671137#4"/>
    </vehicle>
    <vehicle id="70.0" depart="0.00">
        <route edges="223503127#8 5671137#4"/>