<?xml version="1.0" encoding="UTF-8"?>

<!-- generated on 2023-07-13 18:19:25 by Eclipse SUMO netedit Version 1.18.0
-->

<routes xmlns:xsi="http://www.w3.org/2001/XMLSchema-instance" xsi:noNamespaceSchemaLocation="http://sumo.dlr.de/xsd/routes_file.xsd">
    <!-- VTypes -->
    <vType id="bike_bicycle" vClass="bicycle"/>
    <vType id="bus_bus" vClass="bus"/>
    <vType id="motorcycle_motorcycle" vClass="motorcycle"/>
    <vType id="ped_pedestrian" vClass="pedestrian"/>
    <vType id="truck_truck" vClass="truck"/>
    <vType id="veh_passenger" vClass="passenger"/>
    <!-- Vehicles, persons and containers (sorted by depart) -->
    <trip id="bike0" type="bike_bicycle" depart="0.00" departLane="best" from="311690780#11" to="154493699#7"/>
    <trip id="bus0" type="bus_bus" depart="0.00" departLane="best" from="-349757784#5" to="-133270574#9"/>
    <trip id="motorcycle0" type="motorcycle_motorcycle" depart="0.00" departLane="best" from="-35843043#4" to="133270585#15"/>
    <trip id="truck0" type="truck_truck" depart="0.00" departLane="best" from="-349757784#5" to="-133270574#9"/>
    <trip id="veh0" type="veh_passenger" depart="0.00" departLane="best" from="35844242#0" to="-133270574#6"/>
    <person id="ped1" type="ped_pedestrian" depart="1.69">
        <walk edges="-581254950#0 832196902 -581254944#1 581254952 -35843200#1 -832196903 679567180#0 740682984#1 679567182#1 679567182#0 737840382#1 737840382#2 737840382#3 314367715#0 314367715#1 314367715#2 841514987#1 841514985#1 841514985#2 841514980 679567177#1 841514983 841515011#1 841515007#1 679567174#2 679567174#1 679567174#0 679567173#4 -40699405#5"/>
    </person>
    <trip id="veh1" type="veh_passenger" depart="1.98" departLane="best" from="-35845427#1" to="35844834#2"/>
    <trip id="bike1" type="bike_bicycle" depart="2.23" departLane="best" from="-35849839#1" to="35844507#0"/>
    <person id="ped2" type="ped_pedestrian" depart="3.39">
        <walk edges="737278734 -35844477#13 -35849768#8 35849768#7 -35849768#6 -35849768#5 35849768#4 -35849768#3 -35849768#2 737840381 737840382#1 737840383#1 737840383#0 310934520 310934516 310934518#2 310934518#1 310935441 310935440 310935442 680134289#1 -201660739#5"/>
    </person>
    <trip id="truck1" type="truck_truck" depart="3.46" departLane="best" from="-35844834#12" to="-35844324#2"/>
    <trip id="veh2" type="veh_passenger" depart="3.95" departLane="best" from="35845424#10" to="35844342#0"/>
    <trip id="bike2" type="bike_bicycle" depart="4.46" departLane="best" from="-35844524#1" to="35843038#10"/>
    <person id="ped3" type="ped_pedestrian" depart="5.08">
        <walk edges="168978945#1 168986488#1 679567168 168977074#0 168977077#4 168977077#3 168977077#2 168977076#3 168977076#2 168977076#1 168977076#0 825193295#1 739565331#4 739565331#3 739565331#2 739565331#1 739565331#0 178621835#2 178621835#1 178621835#0 841515007#1 841515003#1 416593356#2 -158528292#1"/>
    </person>
    <trip id="motorcycle1" type="motorcycle_motorcycle" depart="5.93" departLane="best" from="35845973#1" to="-35844537#0"/>
    <trip id="veh3" type="veh_passenger" depart="5.93" departLane="best" departSpeed="max" from="42941552" to="-311690779"/>
    <trip id="bike3" type="bike_bicycle" depart="6.69" departLane="best" from="581522797#1" to="-178620697"/>
    <trip id="bus1" type="bus_bus" depart="6.92" departLane="best" from="-35844834#12" to="-35844324#2"/>
    <trip id="veh4" type="veh_passenger" depart="7.91" departLane="best" from="-133057881#0" to="-133270574#9"/>
    <trip id="bike4" type="bike_bicycle" depart="8.93" departLane="best" from="680166631#3" to="-154506003"/>
    <trip id="veh5" type="veh_passenger" depart="9.89" departLane="best" from="-35844342#2" to="311690780#3"/>
    <person id="ped6" type="ped_pedestrian" depart="10.17">
        <walk edges="369844596#0 311242056#7 311242056#6 311242056#4 311242056#3 311242056#2 344740240#0 344740240#1 344740240#2 306654057 -312183578#0 -312183578#2 -312183578#3 -312183578#4 371231408#2 371231408#0 -361105771 342456772#4 342456772#5 342456772#6 342456772#7 326891474#0"/>
    </person>
    <trip id="truck3" type="truck_truck" depart="10.38" departLane="best" from="679893524#1" to="-133270585#3"/>
    <trip id="bike5" type="bike_bicycle" depart="11.16" departLane="best" from="-35844367#0" to="154493699#9"/>
    <trip id="motorcycle2" type="motorcycle_motorcycle" depart="11.86" departLane="best" from="540537300#7" to="-317264298#0"/>
    <trip id="veh6" type="veh_passenger" depart="11.86" departLane="best" from="-133270574#10" to="35844342#0"/>
    <trip id="bike6" type="bike_bicycle" depart="13.39" departLane="best" from="-154493699#9" to="-35844262#0"/>
    <person id="ped8" type="ped_pedestrian" depart="13.56">
        <walk edges="679900858 679900853#2 679900854 -679900855 -589282615#1 -589282617 -153786637#2 -153786637#1 679648101#0 679648104#0 679648104#1 679648103#1 680178944#0 364719376#9 364719376#10 364719376#11 -364719376#12 178621272#0 -178619382#1 -168985931#1 -168985931#0 -35843040#9 -35843040#8 -35843040#7 -35843040#6 -35843040#4 -35843040#3 -35843040#2 -35843040#1 679567157#1 679567157#2 679567157#3 839282225#1 -35845335#0 -35845335#1 484776436 1131160343 -1131160340#2"/>
    </person>
    <trip id="veh7" type="veh_passenger" depart="13.84" departLane="best" from="-35844275#9" to="318298137#6"/>
    <person id="ped9" type="ped_pedestrian" depart="15.25">
        <walk edges="679893543#1 679893547 181981606#1 -679900861 679900858 679900853#2 679900854 -679900855 -589282615#1 -589282617 -153786637#2 -153786637#1 679648101#0 679648104#0 679648104#1 679648103#1 680178944#0 364719376#9 364719376#10 364719376#11 -364719376#12 178621272#0 -178619382#1 -168985931#1 -168985931#0 -35843040#9 -35843040#8 -35843040#7 427268437 -168986695 -168978943#0 -168978947#6 -168978947#5 -168978947#4 -168978947#3 -168978947#2 679567170 679567164#0 825193310#1 825193311#1 825193294#3 825193294#2 73338977#0 739565331#4 428041424#4"/>
    </person>
    <trip id="bike7" type="bike_bicycle" depart="15.62" departLane="best" from="313519416#1" to="168986487"/>
    <trip id="veh8" type="veh_passenger" depart="15.82" departLane="best" from="-35844342#5" to="345727221"/>
    <person id="ped10" type="ped_pedestrian" depart="16.95">
        <walk edges="-737840380 737840380 -35849757#1 737261012 737840382#2 737840382#1 737840383#1 737840383#0 310934520 310934516 310934518#2 310934518#1 310934518#0 310934517 311738812#3 311738812#2 310934519 -201663526 -201663516#0 -35844367#1 -35844367#0 201660739#13 -35844355#0 -35844355#1 35844355#2 -35844355#3 -35844355#4 -35844355#5 -35844357#3"/>
    </person>
    <trip id="truck5" type="truck_truck" depart="17.30" departLane="best" from="-133270574#5" to="35844275#9"/>
    <trip id="motorcycle3" type="motorcycle_motorcycle" depart="17.78" departLane="best" from="-35843193#0" to="311690780#4"/>
    <trip id="veh9" type="veh_passenger" depart="17.79" departLane="best" from="35846309#5" to="-125586592#0"/>
    <trip id="bike8" type="bike_bicycle" depart="17.85" departLane="best" from="-35844375#3" to="-201662477#7"/>
    <person id="ped11" type="ped_pedestrian" depart="18.64">
        <walk edges="812837542 -812837537#10 812837537#11 -812837536#5 -168985193#2 168985194#6 -168985194#5 -168985195#0 -168985195#1 -168978945#2 168978946#3 812837569#1 812837569#0 -168978946#0 -168978943#3 -168978947#3 -168978947#2 679567170 679567164#0 825193310#1 825193311#1 825193294#3 825193294#2 73338977#0 739565331#4 739565331#3 739565331#2 739565331#1 739565331#0 178621835#2 -767895310#1 751578589 -840886400#2 -178621836#0 -178621836#1 -178621840#0 679567174#0 840886034#1 416593376#5 361783399#0 361783398#3 361783398#2 361783398#1 178943238#7 178943241#0 178943241#1 98590464#1 98590464#2 -737249492#1"/>
    </person>
    <trip id="veh10" type="veh_passenger" depart="19.77" departLane="best" departSpeed="max" from="35846309#0" to="35844549#3"/>
    <trip id="bike9" type="bike_bicycle" depart="20.08" departLane="best" from="369817110#1" to="1131160340#0"/>
    <person id="ped12" type="ped_pedestrian" depart="20.33">
        <walk edges="-201662497#2 -201662497#0 201660739#2 -201660739#3 -201660739#4 201660739#5 -201660739#6 201660739#7 -201660739#8 -201660739#9 -201660739#10 201784226#0 -201784229#0 -201784225#0 -201784225#1 -201784225#2 -201782944#4"/>
    </person>
    <trip id="bus3" type="bus_bus" depart="20.76" departLane="best" from="679893524#1" to="-133270585#3"/>
    <person id="ped13" type="ped_pedestrian" depart="22.03">
        <walk edges="73338977#7 73338977#6 73338977#5 73338977#4 73338977#3 73338977#2 825193297#1 679567137 679567175#15 736525488#3 738472062#0 738472062#1 738472062#2 738472062#3 735271673#1 735271673#0 -174418562#2 737239555#1 737239556#0 737239556#1 737239556#2 -35844507#8 -35844507#9 -35844482#7 -35844482#9 735271668#1 735271668#0 594074463#4 594074463#3 594074463#2 594074463#1 594074463#0 837859842 837859840#3 837859840#2 735271666 -737261017 -35849839#2 -35849839#1 314367715#0 737840382#3 737840382#2 737840382#1 679567182#0 679567182#1 740682984#1 679567180#0 -832196903 -35843200#1 581254952 -581254944#1 832196902 581254950#0 -1006110295#2 -35844217#0 1006110292#0 1006110293 -1006110294 386292773#0 35844890#0"/>
    </person>
    <trip id="bike10" type="bike_bicycle" depart="22.32" departLane="best" from="364719378#0" to="35844291#1"/>
    <trip id="motorcycle4" type="motorcycle_motorcycle" depart="23.71" departLane="best" from="35844500#0" to="-328021283#1"/>
    <trip id="veh12" type="veh_passenger" depart="23.73" departLane="best" departSpeed="max" from="573176749#1" to="-48049173#3"/>
    <trip id="truck7" type="truck_truck" depart="24.22" departLane="best" from="-35844291#3" to="-328640015#0"/>
    <trip id="bike11" type="bike_bicycle" depart="24.55" departLane="best" from="-483526599#0" to="-327212723#0"/>
    <person id="ped15" type="ped_pedestrian" depart="25.42">
        <walk edges="314367715#1 -35849839#1 -35849839#2 -737261017 735271666 837859840#2 837859840#3 837859842 594074463#0 594074463#1 594074463#2 594074463#3 594074463#4 735271668#0 735271668#1 -35844482#9 -35844482#7 -35844507#9 -35844507#8 737239556#2 737239556#1 737239556#0 737239555#1 -174418562#2 735271673#0 735271673#1 738472062#3 738472062#2 738472062#1 738472062#0 736525488#3 679567175#15 825193304#1 428041424#4 739565331#4 73338977#0 825193294#2 825193294#3 825193311#1 825193310#1 679567163#1 133270576 825193313#1"/>
    </person>
    <trip id="veh13" type="veh_passenger" depart="25.70" departLane="best" from="-317264298#3" to="-318298137#5"/>
    <trip id="bike12" type="bike_bicycle" depart="26.78" departLane="best" from="-736531266#0" to="-484780666#2"/>
    <trip id="truck8" type="truck_truck" depart="27.68" departLane="best" departSpeed="max" from="35845973#0" to="-125586592#0"/>
    <trip id="veh14" type="veh_passenger" depart="27.68" departLane="best" from="-369817110#0" to="35843020#0"/>
    <person id="ped17" type="ped_pedestrian" depart="28.81">
        <walk edges="680166611#1 -680166600#1 -680166631#0 680166652#0 680166652#1 -680166656#0 -178621274#0 -35843038#15 812837547#1 812837547#0 -812837537#5 812837537#6 -812837537#7 812837537#8 812837550 -35843038#11 -35843038#10 -168985193#2 168985194#6 -168985194#5 -168985195#0 -168985195#1 -168978945#2 168978946#3 812837569#1 812837569#0 -168978946#0 -168978943#3 -168978947#3 -168978947#2 679567170 679567164#0 825193310#1 825193311#1 825193294#3 825193294#2 73338977#0 739565331#4 428041424#4 825193304#1 825193301#1 825193301#2 825193301#3 825193301#4 825193301#5 737281055#1 737281056#0 737281056#1 737281056#2 737281056#3 737281056#4 737281056#5 484776445#0 484776445#1 484776445#2 484776445#3 810457990#1 35849776#0"/>
    </person>
    <trip id="bike13" type="bike_bicycle" depart="29.01" departLane="best" from="-178621839#0" to="-201659166"/>
    <trip id="motorcycle5" type="motorcycle_motorcycle" depart="29.64" departLane="best" from="-35846230#3" to="35844329#1"/>
    <trip id="veh15" type="veh_passenger" depart="29.66" departLane="best" departSpeed="max" from="35846309#0" to="35845312#7"/>
    <person id="ped18" type="ped_pedestrian" depart="30.50">
        <walk edges="735267036#1 -735267036#0 -735236445#2 -35844482#9 -35844482#7 -35844507#9 -35844507#8 737239556#2 737239556#1 737239556#0 737239555#1 -174418562#2 735271673#0 735271673#1 738472062#3 738472062#2 738472062#1 738472062#0 736525488#3 679567175#15 825193304#1 428041424#4 739565331#4 73338977#0 825193294#2 825193294#3 825193311#1 825193310#1 679567164#0 679567170 -168978947#2 -168978947#3 -168978947#4 -168978947#5 -168978947#6 -168978943#0 -168986695 427268437 -35843040#7 -35843040#8 -35843040#9 35843040#10"/>
    </person>
    <trip id="truck9" type="truck_truck" depart="31.14" departLane="best" from="-35845967#0" to="35844286#4"/>
    <trip id="bike14" type="bike_bicycle" depart="31.24" departLane="best" from="48049173#0" to="266073637#1"/>
    <trip id="veh16" type="veh_passenger" depart="31.63" departLane="best" from="312891127#3" to="-35843204#2"/>
    <person id="ped19" type="ped_pedestrian" depart="32.20">
        <walk edges="483526601#2 -483526601#3 -35844482#7 -35844507#9 -35844507#8 737239556#2 737239556#1 737239556#0 737239555#1 -174418562#2 735271673#0 735271673#1 738472062#3 738472062#2 738472062#1 738472062#0 736525488#3 679567175#15 825193304#1 428041424#4 739565331#4 73338977#0 825193294#2 825193294#3 825193311#1 825193310#1 679567164#0 679567170 -168978947#2 -168978947#3 -168978947#4 -168978947#5 -168978947#6 -168978947#7 -168978947#8 168978947#9 -168985783 -168985777#0"/>
    </person>
    <trip id="veh17" type="veh_passenger" depart="33.61" departLane="best" from="591307587#1" to="327947729#0"/>
    <trip id="bus5" type="bus_bus" depart="34.60" departLane="best" from="-133270574#5" to="35844275#9"/>
    <trip id="truck10" type="truck_truck" depart="34.60" departLane="best" from="35845986#22" to="35843020#3"/>
    <trip id="motorcycle6" type="motorcycle_motorcycle" depart="35.57" departLane="best" from="-403846312" to="-35843193#0"/>
    <person id="ped21" type="ped_pedestrian" depart="35.59">
        <walk edges="-181981605#0 -181981605#1 679648104#1 679648103#1 680178944#0 364719376#9 364719376#10 364719376#11 -364719376#12 178621272#0 -178619382#1 -168985931#1 -168985931#0 -35843040#9 -35843040#8 -35843040#7 427268437 -168986695 -168978943#0 -168978947#6 -168978947#5 -168978947#4 -168978947#3 -168978947#2 679567170 679567164#0 825193310#1 825193311#1 825193294#3 825193294#2 73338977#0 739565331#4 739565331#3 739565331#2 739565331#1 739565331#0 178621835#2 -767895310#1 751578589 -840886400#2 -178621836#0 -178621836#1 -178621840#0 679567174#0 840886034#1 416593376#5 416593376#4 416593376#3 416593358#1 778590556#0 778590556#1 -416593397#0"/>
    </person>
    <person id="ped22" type="ped_pedestrian" depart="37.28">
        <walk edges="-201784232#2 -201782944#4 -201784225#2 -201784225#1 -201784225#0 -201784229#0 201784226#0 -201660739#10 -201660739#9 -201660739#8 201660739#7 -201660739#6 201660739#5 -201660739#4 -201660739#3 680134288 -737868489#0 -737868489#1 -737868489#2 -737868489#3 -737868489#4 -737868489#5 737868489#6 -156581274#4 -581522783 -581522782#1 -581522785"/>
    </person>
    <trip id="veh19" type="veh_passenger" depart="37.57" departLane="best" from="371237121#3" to="337515390#3"/>
    <trip id="bike17" type="bike_bicycle" depart="37.94" departLane="best" from="581254944#0" to="-168987968#2"/>
    <trip id="truck11" type="truck_truck" depart="38.06" departLane="best" departSpeed="max" from="591307587#0" to="-35846309#0"/>
    <person id="ped23" type="ped_pedestrian" depart="38.98">
        <walk edges="361783398#0 361783398#1 361783398#2 361783398#3 361783399#0 416593376#5 840886034#1 679567174#0 -178621840#0 -178621836#1 -178621836#0 -840886400#2 751578589 -767895310#1 178621835#2 739565331#0 739565331#1 739565331#2 739565331#3 739565331#4 825193295#1 168977076#0 168977076#1 168977076#2 168977076#3 168977077#2 168977077#3 168977077#4 168977074#0 -186591241#0 -168985196 -168985194#2 -168985194#1 -427268440#1 -736522084 -679555217#3 -679555217#2 679555217#1 679555217#0 812837577#3 812837576#2 812837576#1 -812837573#0"/>
    </person>
    <trip id="veh20" type="veh_passenger" depart="39.54" departLane="best" from="-35844834#7" to="-134120211#0"/>
    <trip id="bike18" type="bike_bicycle" depart="40.17" departLane="best" from="40699405#3" to="311360712#5"/>
    <trip id="motorcycle7" type="motorcycle_motorcycle" depart="41.50" departLane="best" from="318298137#3" to="318298137#8"/>
    <trip id="truck12" type="truck_truck" depart="41.52" departLane="best" from="35846218#5" to="332458752#5"/>
    <trip id="veh21" type="veh_passenger" depart="41.52" departLane="best" from="-35844519#0" to="-35846309#0"/>
    <person id="ped25" type="ped_pedestrian" depart="42.36">
        <walk edges="-538881646#1 679893528#0 35843175#1 -134495774#4 -134495774#3 -134495774#2 -134495774#1 679893527#3 -153786637#3 -153786637#2 -153786637#1 679648101#0 679648104#0 679648104#1 679648103#1 680178944#0 364719376#9 364719376#10 364719376#11 -364719376#12 178621272#0 -178619382#1 -168985931#1 -168985931#0 -35843040#9 -35843040#8 -35843040#7 427268437 -168986695 -168978943#0 -168978947#6 -168978947#5 -168978947#4 -168978947#3 -168978947#2 679567170 679567164#0 825193310#1 825193311#1 825193294#3 825193294#2 73338977#0 739565331#4 428041424#4 825193304#1 679567175#15 736525488#3 738472062#0 738472062#1 738472062#2 738472062#3 735271673#1 735271673#0 -174418562#2 737239555#1 737239556#0 737239556#1 737239556#2 -35844507#8 -35844507#9 -35844482#7 -756011448#0 35849855#1 764466908"/>
    </person>
    <trip id="bike19" type="bike_bicycle" depart="42.40" departLane="best" from="484867767#0" to="-184464789"/>
    <trip id="veh22" type="veh_passenger" depart="43.50" departLane="best" from="-302363668#0" to="35845414#3"/>
    <trip id="bike20" type="bike_bicycle" depart="44.63" departLane="best" from="35843204#3" to="-158528320#0"/>
    <trip id="truck13" type="truck_truck" depart="44.98" departLane="best" from="-35845967#3" to="35844342#1"/>
    <trip id="veh24" type="veh_passenger" depart="47.45" departLane="best" from="-35843204#1" to="-591307587#0"/>
    <trip id="bus7" type="bus_bus" depart="48.44" departLane="best" from="-35844291#3" to="-328640015#0"/>
    <trip id="truck14" type="truck_truck" depart="48.44" departLane="best" from="35845986#2" to="347948450#1"/>
    <trip id="bike22" type="bike_bicycle" depart="49.10" departLane="best" from="-178616053#3" to="35844834#1"/>
    <trip id="veh25" type="veh_passenger" depart="49.43" departLane="best" from="540537300#4" to="35844519#1"/>
    <person id="ped30" type="ped_pedestrian" depart="50.84">
        <walk edges="-416593377#0 -416593377#1 -416593385#1 98590456#5 98590456#4 416593376#0 416593376#1 416593376#2 416593376#3 416593376#4 416593376#5 840886034#1 679567174#0 679567174#1 679567174#2 841515007#1 841515011#1 841514983 679567177#1 -35849881#0 679567179 740682982#3 740682982#2 -158528318#0"/>
    </person>
    <trip id="bike23" type="bike_bicycle" depart="51.33" departLane="best" from="201659177#5" to="-360219942#6"/>
    <trip id="veh26" type="veh_passenger" depart="51.40" departLane="best" from="-35844275#6" to="35843020#4"/>
    <trip id="truck15" type="truck_truck" depart="51.90" departLane="best" from="35846309#1" to="-327947729#0"/>
    <person id="ped31" type="ped_pedestrian" depart="52.53">
        <walk edges="-680166652#0 680166652#1 -680166656#0 -178621274#0 -35843038#15 812837547#1 812837547#0 -812837537#5 812837537#6 -812837537#7 812837537#8 812837550 -35843038#11 -35843038#10 -168985193#2 168985194#6 -168985194#5 -168985195#0 -168985195#1 -168978945#2 168978946#3 812837569#1 812837569#0 -168978946#0 -168978943#3 -168978947#3 -168978947#2 679567170 679567164#0 825193310#1 825193311#1 825193294#3 825193294#2 73338977#0 739565331#4 428041424#4 825193304#1 679567175#15 736525488#3 738472062#0 738472062#1 738472062#2 738472062#3 735271673#1 735271673#0 -174418562#2 737239555#1 737239556#0 737239556#1 737239556#2 -35844507#8 -35844507#9 -35844482#7 -35844482#9 735271668#1 735271668#0 594074463#4 594074463#3 594074463#2 594074463#1 594074463#0 837859842 837859840#3 837859840#2 735271666 -737261017 -35849839#2 -35849839#1 314367715#0 737840382#3 737840382#2 737840382#1 679567182#0 679567182#1 740682984#1 679567180#0 -832196903 -35843200#0 -551042553#1 -551042553#0"/>
    </person>
    <trip id="motorcycle9" type="motorcycle_motorcycle" depart="53.35" departLane="best" from="-35844519#2" to="35846230#4"/>
    <trip id="veh27" type="veh_passenger" depart="53.38" departLane="best" departSpeed="max" from="-35843197#2" to="35845312#7"/>
    <trip id="bike24" type="bike_bicycle" depart="53.56" departLane="best" from="311360712#9" to="-569362655#1"/>
    <trip id="bus8" type="bus_bus" depart="55.36" departLane="best" departSpeed="max" from="35845973#0" to="-125586592#0"/>
    <trip id="truck16" type="truck_truck" depart="55.36" departLane="best" from="35844293#1" to="154493699#11"/>
    <trip id="bike25" type="bike_bicycle" depart="55.79" departLane="best" from="540537300#11" to="-35844342#3"/>
    <person id="ped33" type="ped_pedestrian" depart="55.92">
        <walk edges="736531265#1 -736531265#0 -35849867#1 -35849881#5 -35849881#6 737908312 -35849881#9 -767895312#0 -767895312#1 -767895312#2 679567175#6 679567175#7 679567175#8 679567175#9 679567175#10 679567175#11 679567175#12 679567175#13 679567175#14 679567175#15 825193304#1 428041424#4 739565331#4 73338977#0 825193294#2 825193294#3 825193311#1 825193310#1 679567164#0 679567170 -168978947#2 -168978947#3 -168978947#4 -168978947#5 -168978947#6 -168978943#0 -168986695 427268437 -35843040#7 -35843040#8 -35843040#9 -168985931#0 -168985931#1 -178619382#1 178621272#0 -364719376#12 364719376#11 364719376#10 -680166648"/>
    </person>
    <trip id="veh29" type="veh_passenger" depart="57.34" departLane="best" from="778590555#0" to="-35844242#1"/>
    <trip id="bike26" type="bike_bicycle" depart="58.02" departLane="best" from="35846525#2" to="682203787"/>
    <trip id="truck17" type="truck_truck" depart="58.82" departLane="best" from="-35844298#3" to="35845427#1"/>
    <trip id="motorcycle10" type="motorcycle_motorcycle" depart="59.28" departLane="best" from="-327288963#1" to="35845986#20"/>
    <trip id="veh30" type="veh_passenger" depart="59.31" departLane="best" from="364719378#1" to="-35845986#2"/>
    <person id="ped35" type="ped_pedestrian" depart="59.31">
        <walk edges="738472062#2 738472062#1 738472062#0 736525488#3 679567175#15 825193304#1 428041424#4 739565331#4 73338977#0 825193294#2 825193294#3 825193311#1 825193310#1 679567163#1 133270576 679567162 1131160346 -168987960#1 1131160342#1 1131160344 -1131160340#2 1131160343 484776436 -35845335#2 178620634 178620635"/>
    </person>
    <trip id="bike27" type="bike_bicycle" depart="60.25" departLane="best" from="312891127#3" to="302363668#7"/>
    <trip id="veh31" type="veh_passenger" depart="61.29" departLane="best" from="-35844519#2" to="-133270585#12"/>
    <trip id="bus9" type="bus_bus" depart="62.28" departLane="best" from="-35845967#0" to="35844286#4"/>
    <trip id="truck18" type="truck_truck" depart="62.28" departLane="best" from="310909556#0" to="35844342#5"/>
    <trip id="bike28" type="bike_bicycle" depart="62.49" departLane="best" from="-332458752#1" to="35844834#14"/>
    <person id="ped38" type="ped_pedestrian" depart="64.39">
        <walk edges="35844355#1 -35844355#0 201660739#13 -35844367#0 -35844367#1 -201663516#0 -201663526 310934519 311738812#2 311738812#3 310934517 310934518#0 310934518#1 310934518#2 310934516 310934520 737840383#0 737840383#1 737840382#1 737840382#2 737840382#3 314367715#0 314367715#1 314367715#2 841514987#1 841514985#1 841514985#2 841514980 679567177#1 841514983 841515011#1 841515007#1 679567174#2 679567174#1 679567174#0 679567173#4 679567173#3 -40699406#1 -40699406#2 -40699406#3 -40699406#4 -840886401#0 -93850990 737840388"/>
    </person>
    <trip id="bike29" type="bike_bicycle" depart="64.72" departLane="best" departSpeed="max" from="-328021282#1" to="-679555217#3"/>
    <trip id="veh33" type="veh_passenger" depart="65.24" departLane="best" from="-35844329#0" to="-145659797#1"/>
    <trip id="truck19" type="truck_truck" depart="65.74" departLane="best" from="-327288962#0" to="-35845414#7"/>
    <person id="ped39" type="ped_pedestrian" depart="66.09">
        <walk edges="154927644#1 737862469 680134284#1 -680134284#0 -403846305#5"/>
    </person>
    <trip id="bike30" type="bike_bicycle" depart="66.95" departLane="best" from="812837576#0" to="314579016#2"/>
    <trip id="veh34" type="veh_passenger" depart="67.22" departLane="best" from="42941539#2" to="-371237121#2"/>
    <person id="ped40" type="ped_pedestrian" depart="67.78">
        <walk edges="-201662489#0 371446817 -201660739#9 -201660739#8 201660739#7 -201660739#6 201660739#5 680134289#1 310935442 310935440 310935441 310934518#1 310934518#2 310934516 310934520 737840383#0 737840383#1 737840382#1 737840382#2 737840382#3 314367715#0 -35849839#1 -35849839#2 -737261017 735271666 837859840#2 837859840#3 837859842 594074463#0 594074463#1 594074463#2 594074463#3 594074463#4 735271668#0 735271668#1 -35844482#9 -35844482#7 -35844507#9 -35844507#8 737239556#2 737239556#1 737239556#0 737239555#1 -174418562#2 735271673#0 735271673#1 738472062#3 738472062#2 738472062#1 738472062#0 736525488#3 679567175#15 825193304#1 428041424#4 739565331#4 73338977#0 825193294#2 825193294#3 825193311#1 825193310#1 679567163#1 133270576 -168978944#0 679567157#5 679567157#4 679567157#3 679567157#2 679567157#1 -35843040#1 -168985778#0 -168985778#1"/>
    </person>
    <trip id="bike31" type="bike_bicycle" depart="69.18" departLane="best" from="168985194#6" to="35843059#4"/>
    <trip id="bus10" type="bus_bus" depart="69.20" departLane="best" from="35845986#22" to="35843020#3"/>
    <trip id="truck20" type="truck_truck" depart="69.20" departLane="best" from="-349757784#1" to="-371237121#10"/>
    <trip id="motorcycle12" type="motorcycle_motorcycle" depart="71.13" departLane="best" from="35843204#3" to="35844834#12"/>
    <trip id="veh36" type="veh_passenger" depart="71.18" departLane="best" from="42941553#3" to="201662464#2"/>
    <trip id="bike32" type="bike_bicycle" depart="71.41" departLane="best" from="416593398#3" to="35849876#4"/>
    <trip id="veh37" type="veh_passenger" depart="73.15" departLane="best" from="-35845424#13" to="-35845424#5"/>
    <trip id="bike33" type="bike_bicycle" depart="73.64" departLane="best" from="-35844507#0" to="-154927651"/>
    <trip id="veh38" type="veh_passenger" depart="75.13" departLane="best" from="-318298137#2" to="-35845973#0"/>
    <trip id="bike34" type="bike_bicycle" depart="75.88" departLane="best" from="403846305#6" to="35849776#2"/>
    <trip id="bus11" type="bus_bus" depart="76.12" departLane="best" departSpeed="max" from="591307587#0" to="-35846309#0"/>
    <trip id="truck22" type="truck_truck" depart="76.12" departLane="best" from="-35844547" to="42941553#4"/>
    <person id="ped45" type="ped_pedestrian" depart="76.26">
        <walk edges="825193301#1 679567175#15 736525488#3 738472062#0 738472062#1 738472062#2 738472062#3 735271673#1 735271673#0 -174418562#2 737239555#1 737239555#0 -735267030#2 735267030#3"/>
    </person>
    <trip id="motorcycle13" type="motorcycle_motorcycle" depart="77.06" departLane="best" from="-35843197#0" to="-679893524#6"/>
    <trip id="veh39" type="veh_passenger" depart="77.11" departLane="best" from="-328640015#1" to="42941553#11"/>
    <trip id="bike35" type="bike_bicycle" depart="78.11" departLane="best" from="35844298#2" to="-735267040#4"/>
    <trip id="veh40" type="veh_passenger" depart="79.08" departLane="best" from="-778590557#5" to="-35844834#11"/>
    <trip id="truck23" type="truck_truck" depart="79.58" departLane="best" from="-35843020#2" to="337515390#3"/>
    <person id="ped47" type="ped_pedestrian" depart="79.64">
        <walk edges="416593379#0 416593376#1 416593376#2 416593376#3 416593376#4 416593376#5 840886034#1 679567174#0 679567174#1 679567174#2 841515007#1 841515000#1 679567176#0 679567176#1 679567176#2 314371074#1"/>
    </person>
    <trip id="bike36" type="bike_bicycle" depart="80.34" departLane="best" from="525700449" to="-40699988#3"/>
    <trip id="veh41" type="veh_passenger" depart="81.06" departLane="best" from="987593666#1" to="311690780#6"/>
    <trip id="bike37" type="bike_bicycle" depart="82.57" departLane="best" from="314371074#0" to="-679893535#5"/>
    <trip id="motorcycle14" type="motorcycle_motorcycle" depart="82.99" departLane="best" from="312891127#1" to="35844293#1"/>
    <person id="ped49" type="ped_pedestrian" depart="83.03">
        <walk edges="178616825#1 825193284#0 825193284#1 825193284#2 -178616827#0 -178616830#0 -178616053#5 -35845340#5 -35845310#0 -35845310#1 780486716 738575615#0 679567156#4 -35845335#0 839282225#1 679567157#3 -35843038#1 -35843038#2 -35843038#3 -35843038#5 -35843038#6 -35843038#7 -35843038#8 -35843038#9 -812837536#5 812837537#11"/>
    </person>
    <trip id="bus12" type="bus_bus" depart="83.04" departLane="best" from="35846218#5" to="332458752#5"/>
    <trip id="veh42" type="veh_passenger" depart="83.04" departLane="best" from="-314608192#1" to="-134120212"/>
    <trip id="bike38" type="bike_bicycle" depart="84.80" departLane="best" from="679893535#3" to="812837536#0"/>
    <trip id="veh43" type="veh_passenger" depart="85.02" departLane="best" from="327947729#7" to="-35843193#7"/>
    <trip id="truck25" type="truck_truck" depart="86.50" departLane="best" from="-35843043#2" to="-48049173#0"/>