<?xml version="1.0" encoding="UTF-8"?>

<!-- generated on 2023-07-13 18:17:45.916261 by osmWebWizard.py v1_18_0+0000-03ecfdea036
<configuration>
    <net-file value="C:\Users\Rustam Mattiev\2023-07-13-18-17-30\osm.net.xml.gz"/>
    <output-trip-file value="C:\Users\Rustam Mattiev\2023-07-13-18-17-30\osm.pedestrian.trips.xml"/>
    <route-file value="C:\Users\Rustam Mattiev\2023-07-13-18-17-30\osm.pedestrian.rou.xml"/>
    <pedestrians value="True"/>
    <prefix value="ped"/>
    <vehicle-class value="pedestrian"/>
    <fringe-factor value="1"/>
    <max-distance value="2000.0"/>
    <insertion-density value="10.0"/>
</configuration>
-->

<routes xmlns:xsi="http://www.w3.org/2001/XMLSchema-instance" xsi:noNamespaceSchemaLocation="http://sumo.dlr.de/xsd/routes_file.xsd">
    <vType id="ped_pedestrian" vClass="pedestrian"/>
    <person id="ped0" depart="0.00" type="ped_pedestrian">
        <walk from="363418289" to="-154930971#0"/>
    </person>
    <person id="ped1" depart="1.69" type="ped_pedestrian">
        <walk from="-581254950#0" to="-40699405#5"/>
    </person>
    <person id="ped2" depart="3.39" type="ped_pedestrian">
        <walk from="737278734" to="-201660739#5"/>
    </person>
    <person id="ped3" depart="5.08" type="ped_pedestrian">
        <walk from="168978945#1" to="-158528292#1"/>
    </person>
    <person id="ped4" depart="6.78" type="ped_pedestrian">
        <walk from="-403846305#2" to="306669891#1"/>
    </person>
    <person id="ped5" depart="8.47" type="ped_pedestrian">
        <walk from="-156581274#1" to="-361105772#2"/>
    </person>
    <person id="ped6" depart="10.17" type="ped_pedestrian">
        <walk from="369844596#0" to="326891474#0"/>
    </person>
    <person id="ped7" depart="11.86" type="ped_pedestrian">
        <walk from="-403846307" to="35844447#7"/>
    </person>
    <person id="ped8" depart="13.56" type="ped_pedestrian">
        <walk from="679900858" to="-1131160340#2"/>
    </person>
    <person id="ped9" depart="15.25" type="ped_pedestrian">
        <walk from="679893543#1" to="428041424#4"/>
    </person>
    <person id="ped10" depart="16.95" type="ped_pedestrian">
        <walk from="-737840380" to="-35844357#3"/>
    </person>
    <person id="ped11" depart="18.64" type="ped_pedestrian">
        <walk from="812837542" to="-737249492#1"/>
    </person>
    <person id="ped12" depart="20.33" type="ped_pedestrian">
        <walk from="-201662497#2" to="-201782944#4"/>
    </person>
    <person id="ped13" depart="22.03" type="ped_pedestrian">
        <walk from="73338977#7" to="35844890#0"/>
    </person>
    <person id="ped14" depart="23.72" type="ped_pedestrian">
        <walk from="679893548#2" to="495668318#3"/>
    </person>
    <person id="ped15" depart="25.42" type="ped_pedestrian">
        <walk from="314367715#1" to="825193313#1"/>
    </person>
    <person id="ped16" depart="27.11" type="ped_pedestrian">
        <walk from="1006110295#2" to="332465570#1"/>
    </person>
    <person id="ped17" depart="28.81" type="ped_pedestrian">
        <walk from="680166611#1" to="35849776#0"/>
    </person>
    <person id="ped18" depart="30.50" type="ped_pedestrian">
        <walk from="735267036#1" to="35843040#10"/>
    </person>
    <person id="ped19" depart="32.20" type="ped_pedestrian">
        <walk from="483526601#2" to="-168985777#0"/>
    </person>
    <person id="ped20" depart="33.89" type="ped_pedestrian">
        <walk from="-416593370#1" to="-679893503#6"/>
    </person>
    <person id="ped21" depart="35.59" type="ped_pedestrian">
        <walk from="-181981605#0" to="-416593397#0"/>
    </person>
    <person id="ped22" depart="37.28" type="ped_pedestrian">
        <walk from="-201784232#2" to="-581522785"/>
    </person>
    <person id="ped23" depart="38.98" type="ped_pedestrian">
        <walk from="361783398#0" to="-812837573#0"/>
    </person>
    <person id="ped24" depart="40.67" type="ped_pedestrian">
        <walk from="-826496730" to="-371300965#0"/>
    </person>
    <person id="ped25" depart="42.36" type="ped_pedestrian">
        <walk from="-538881646#1" to="764466908"/>
    </person>
    <person id="ped26" depart="44.06" type="ped_pedestrian">
        <walk from="365953083#9" to="35845340#3"/>
    </person>
    <person id="ped27" depart="45.75" type="ped_pedestrian">
        <walk from="-35844482#1" to="1006485173#1"/>
    </person>
    <person id="ped28" depart="47.45" type="ped_pedestrian">
        <walk from="841515005#1" to="363418292"/>
    </person>
    <person id="ped29" depart="49.14" type="ped_pedestrian">
        <walk from="682203782#3" to="679567169"/>
    </person>
    <person id="ped30" depart="50.84" type="ped_pedestrian">
        <walk from="-416593377#0" to="-158528318#0"/>
    </person>
    <person id="ped31" depart="52.53" type="ped_pedestrian">
        <walk from="-680166652#0" to="-551042553#0"/>
    </person>
    <person id="ped32" depart="54.23" type="ped_pedestrian">
        <walk from="-372546141#2" to="803381988"/>
    </person>
    <person id="ped33" depart="55.92" type="ped_pedestrian">
        <walk from="736531265#1" to="-680166648"/>
    </person>
    <person id="ped34" depart="57.62" type="ped_pedestrian">
        <walk from="372546141#2" to="154505994#3"/>
    </person>
    <person id="ped35" depart="59.31" type="ped_pedestrian">
        <walk from="738472062#2" to="178620635"/>
    </person>
    <person id="ped36" depart="61.00" type="ped_pedestrian">
        <walk from="-495671105#1" to="-484780673#1"/>
    </person>
    <person id="ped37" depart="62.70" type="ped_pedestrian">
        <walk from="345727217" to="-495668318#3"/>
    </person>
    <person id="ped38" depart="64.39" type="ped_pedestrian">
        <walk from="35844355#1" to="737840388"/>
    </person>
    <person id="ped39" depart="66.09" type="ped_pedestrian">
        <walk from="154927644#1" to="-403846305#5"/>
    </person>
    <person id="ped40" depart="67.78" type="ped_pedestrian">
        <walk from="-201662489#0" to="-168985778#1"/>
    </person>
    <person id="ped41" depart="69.48" type="ped_pedestrian">
        <walk from="-311244050#0" to="360219942#3"/>
    </person>
    <person id="ped42" depart="71.17" type="ped_pedestrian">
        <walk from="679893503#3" to="168978945#2"/>
    </person>
    <person id="ped43" depart="72.87" type="ped_pedestrian">
        <walk from="-178482999#0" to="1044684838#1"/>
    </person>
    <person id="ped44" depart="74.56" type="ped_pedestrian">
        <walk from="98590456#4" to="313523458"/>
    </person>
    <person id="ped45" depart="76.26" type="ped_pedestrian">
        <walk from="825193301#1" to="735267030#3"/>
    </person>
    <person id="ped46" depart="77.95" type="ped_pedestrian">
        <walk from="-131253293#1" to="494633647#0"/>
    </person>
    <person id="ped47" depart="79.64" type="ped_pedestrian">
        <walk from="416593379#0" to="314371074#1"/>
    </person>
    <person id="ped48" depart="81.34" type="ped_pedestrian">
        <walk from="-311360712#10" to="168985785#1"/>
    </person>
    <person id="ped49" depart="83.03" type="ped_pedestrian">
        <walk from="178616825#1" to="812837537#11"/>
    </person>
    <person id="ped50" depart="84.73" type="ped_pedestrian">
        <walk from="736525488#6" to="-495670002#2"/>
    </person>
    <person id="ped51" depart="86.42" type="ped_pedestrian">
        <walk from="306653426#1" to="-35845992#0"/>
    </person>
    <person id="ped52" depart="88.12" type="ped_pedestrian">
        <walk from="738264974#2" to="735271674#3"/>
    </person>
    <person id="ped53" depart="89.81" type="ped_pedestrian">
        <walk from="35845340#3" to="-35844236"/>
    </person>
    <person id="ped54" depart="91.51" type="ped_pedestrian">
        <walk from="679567144#1" to="314825789"/>
    </person>
    <person id="ped55" depart="93.20" type="ped_pedestrian">
        <walk from="679567175#1" to="313523468"/>
    </person>
    <person id="ped56" depart="94.90" type="ped_pedestrian">
        <walk from="-154927646#3" to="756283141#0"/>
    </person>
    <person id="ped57" depart="96.59" type="ped_pedestrian">
        <walk from="736546731#1" to="680166635"/>
    </person>
    <person id="ped58" depart="98.28" type="ped_pedestrian">
        <walk from="-680166600#1" to="-168987969#0"/>
    </person>
    <person id="ped59" depart="99.98" type="ped_pedestrian">
        <walk from="736546730#0" to="810457966#0"/>
    </person>
    <person id="ped60" depart="101.67" type="ped_pedestrian">
        <walk from="-201660739#11" to="201662497#1"/>
    </person>
    <person id="ped61" depart="103.37" type="ped_pedestrian">
        <walk from="-178616828#1" to="679555219#1"/>
    </person>
    <person id="ped62" depart="105.06" type="ped_pedestrian">
        <walk from="679567149" to="-326868854#0"/>
    </person>
    <person id="ped63" depart="106.76" type="ped_pedestrian">
        <walk from="201659165#5" to="328319777#0"/>
    </person>
    <person id="ped64" depart="108.45" type="ped_pedestrian">
        <walk from="-495671105#2" to="736474905#0"/>
    </person>
    <person id="ped65" depart="110.15" type="ped_pedestrian">
        <walk from="168978946#3" to="-372546149#0"/>
    </person>
    <person id="ped66" depart="111.84" type="ped_pedestrian">
        <walk from="314825789" to="495670002#0"/>
    </person>
    <person id="ped67" depart="113.54" type="ped_pedestrian">
        <walk from="168987954#2" to="311361039#1"/>
    </person>
    <person id="ped68" depart="115.23" type="ped_pedestrian">
        <walk from="-737261018#1" to="35844447#0"/>
    </person>
    <person id="ped69" depart="116.93" type="ped_pedestrian">
        <walk from="-416593385#1" to="-403846306#2"/>
    </person>
    <person id="ped70" depart="118.62" type="ped_pedestrian">
        <walk from="-416593377#0" to="737868491#1"/>
    </person>
    <person id="ped71" depart="120.31" type="ped_pedestrian">
        <walk from="735267029#0" to="-178619382#1"/>
    </person>
    <person id="ped72" depart="122.01" type="ped_pedestrian">
        <walk from="-428041419#1" to="403846305#4"/>
    </person>
    <person id="ped73" depart="123.70" type="ped_pedestrian">
        <walk from="-374224295#2" to="-328319777#0"/>
    </person>
    <person id="ped74" depart="125.40" type="ped_pedestrian">
        <walk from="764466897#1" to="351554769#1"/>
    </person>
    <person id="ped75" depart="127.09" type="ped_pedestrian">
        <walk from="179253476" to="679575750#2"/>
    </person>
    <person id="ped76" depart="128.79" type="ped_pedestrian">
        <walk from="679893548#4" to="-35849876#10"/>
    </person>
    <person id="ped77" depart="130.48" type="ped_pedestrian">
        <walk from="-201782944#5" to="168985776#0"/>
    </person>
    <person id="ped78" depart="132.18" type="ped_pedestrian">
        <walk from="168978947#1" to="178622692#3"/>
    </person>
    <person id="ped79" depart="133.87" type="ped_pedestrian">
        <walk from="840886400#0" to="-201784225#1"/>
    </person>
    <person id="ped80" depart="135.57" type="ped_pedestrian">
        <walk from="154929213" to="-737278733"/>
    </person>
    <person id="ped81" depart="137.26" type="ped_pedestrian">
        <walk from="735267036#1" to="-484782254"/>
    </person>
    <person id="ped82" depart="138.95" type="ped_pedestrian">
        <walk from="-35849876#1" to="178482742#0"/>
    </person>
    <person id="ped83" depart="140.65" type="ped_pedestrian">
        <walk from="168978945#1" to="-581522786#1"/>
    </person>
    <person id="ped84" depart="142.34" type="ped_pedestrian">
        <walk from="-484867762#0" to="740682982#1"/>
    </person>
    <person id="ped85" depart="144.04" type="ped_pedestrian">
        <walk from="168987968#0" to="735267036#0"/>
    </person>
    <person id="ped86" depart="145.73" type="ped_pedestrian">
        <walk from="328319778#1" to="-168986486#0"/>
    </person>
    <person id="ped87" depart="147.43" type="ped_pedestrian">
        <walk from="987593667" to="680166660#0"/>
    </person>
    <person id="ped88" depart="149.12" type="ped_pedestrian">
        <walk from="825193285" to="756011449"/>
    </person>
    <person id="ped89" depart="150.82" type="ped_pedestrian">
        <walk from="73339159#4" to="-35844507#9"/>
    </person>
    <person id="ped90" depart="152.51" type="ped_pedestrian">
        <walk from="201662496" to="-373717118#2"/>
    </person>
    <person id="ped91" depart="154.21" type="ped_pedestrian">
        <walk from="154927661#2" to="-168987970#1"/>
    </person>
    <person id="ped92" depart="155.90" type="ped_pedestrian">
        <walk from="1006110297" to="840886400#5"/>
    </person>
    <person id="ped93" depart="157.59" type="ped_pedestrian">
        <walk from="-495671204" to="679567182#1"/>
    </person>
    <person id="ped94" depart="159.29" type="ped_pedestrian">
        <walk from="178616827#1" to="168978946#2"/>
    </person>
    <person id="ped95" depart="160.98" type="ped_pedestrian">
        <walk from="812837543#0" to="98590456#0"/>
    </person>
    <person id="ped96" depart="162.68" type="ped_pedestrian">
        <walk from="825193284#2" to="35843048#1"/>
    </person>
    <person id="ped97" depart="164.37" type="ped_pedestrian">
        <walk from="316947429#1" to="581522782#1"/>
    </person>
    <person id="ped98" depart="166.07" type="ped_pedestrian">
        <walk from="-168987968#2" to="35844347#3"/>
    </person>
    <person id="ped99" depart="167.76" type="ped_pedestrian">
        <walk from="306663241#1" to="73341753#1"/>
    </person>
    <person id="ped100" depart="169.46" type="ped_pedestrian">
        <walk from="-184047477" to="-35849768#8"/>
    </person>
    <person id="ped101" depart="171.15" type="ped_pedestrian">
        <walk from="35844482#9" to="40699814"/>
    </person>
    <person id="ped102" depart="172.85" type="ped_pedestrian">
        <walk from="737269156#1" to="-484780672"/>
    </person>
    <person id="ped103" depart="174.54" type="ped_pedestrian">
        <walk from="35844482#6" to="35849839#0"/>
    </person>
    <person id="ped104" depart="176.24" type="ped_pedestrian">
        <walk from="168978091#1" to="35844347#1"/>
    </person>
    <person id="ped105" depart="177.93" type="ped_pedestrian">
        <walk from="312183578#3" to="764466894"/>
    </person>
    <person id="ped106" depart="179.62" type="ped_pedestrian">
        <walk from="-364719376#9" to="484867762#1"/>
    </person>
    <person id="ped107" depart="181.32" type="ped_pedestrian">
        <walk from="-438612008#1" to="154505994#3"/>
    </person>
    <person id="ped108" depart="183.01" type="ped_pedestrian">
        <walk from="403846313" to="-679893541"/>
    </person>
    <person id="ped109" depart="184.71" type="ped_pedestrian">
        <walk from="-680166654" to="589282615#0"/>
    </person>
    <person id="ped110" depart="186.40" type="ped_pedestrian">
        <walk from="-178620697" to="178620577#0"/>
    </person>
    <person id="ped111" depart="188.10" type="ped_pedestrian">
        <walk from="98590464#2" to="98590456#4"/>
    </person>
    <person id="ped112" depart="189.79" type="ped_pedestrian">
        <walk from="-178621274#2" to="-372546162#1"/>
    </person>
    <person id="ped113" depart="191.49" type="ped_pedestrian">
        <walk from="-495671204" to="759567953"/>
    </person>
    <person id="ped114" depart="193.18" type="ped_pedestrian">
        <walk from="736546732#6" to="736546731#3"/>
    </person>
    <person id="ped115" depart="194.88" type="ped_pedestrian">
        <walk from="-825193278#1" to="-35844447#0"/>
    </person>
    <person id="ped116" depart="196.57" type="ped_pedestrian">
        <walk from="680166648" to="483526600#0"/>
    </person>
    <person id="ped117" depart="198.26" type="ped_pedestrian">
        <walk from="35846511#1" to="841514980"/>
    </person>
    <person id="ped118" depart="199.96" type="ped_pedestrian">
        <walk from="680134289#0" to="-679893538"/>
    </person>
    <person id="ped119" depart="201.65" type="ped_pedestrian">
        <walk from="378724659" to="767895312#0"/>
    </person>
    <person id="ped120" depart="203.35" type="ped_pedestrian">
        <walk from="-306654058#3" to="334554483#0"/>
    </person>
    <person id="ped121" depart="205.04" type="ped_pedestrian">
        <walk from="-581254943#2" to="35845302#1"/>
    </person>
    <person id="ped122" depart="206.74" type="ped_pedestrian">
        <walk from="484867764#0" to="-364719376#4"/>
    </person>
    <person id="ped123" depart="208.43" type="ped_pedestrian">
        <walk from="361186768#0" to="-495671061#1"/>
    </person>
    <person id="ped124" depart="210.13" type="ped_pedestrian">
        <walk from="201663516#3" to="737868491#1"/>
    </person>
    <person id="ped125" depart="211.82" type="ped_pedestrian">
        <walk from="73338977#1" to="-201662497#0"/>
    </person>
    <person id="ped126" depart="213.52" type="ped_pedestrian">
        <walk from="168978947#1" to="-581254953"/>
    </person>
    <person id="ped127" depart="215.21" type="ped_pedestrian">
        <walk from="-1006485177#0" to="679567157#3"/>
    </person>
    <person id="ped128" depart="216.90" type="ped_pedestrian">
        <walk from="361783399#3" to="-495667695#1"/>
    </person>
    <person id="ped129" depart="218.60" type="ped_pedestrian">
        <walk from="-178621837#0" to="736560912#1"/>
    </person>
    <person id="ped130" depart="220.29" type="ped_pedestrian">
        <walk from="737868489#3" to="326893515#1"/>
    </person>
    <person id="ped131" depart="221.99" type="ped_pedestrian">
        <walk from="-35843040#7" to="-314600826"/>
    </person>
    <person id="ped132" depart="223.68" type="ped_pedestrian">
        <walk from="-680166606#0" to="737840393#2"/>
    </person>
    <person id="ped133" depart="225.38" type="ped_pedestrian">
        <walk from="679893515#5" to="735267030#2"/>
    </person>
    <person id="ped134" depart="227.07" type="ped_pedestrian">
        <walk from="737840393#2" to="-371446817"/>
    </person>
    <person id="ped135" depart="228.77" type="ped_pedestrian">
        <walk from="-484782258#1" to="-201787868#0"/>
    </person>
    <person id="ped136" depart="230.46" type="ped_pedestrian">
        <walk from="679567175#2" to="737239556#1"/>
    </person>
    <person id="ped137" depart="232.16" type="ped_pedestrian">
        <walk from="154930971#2" to="35849855#0"/>
    </person>
    <person id="ped138" depart="233.85" type="ped_pedestrian">
        <walk from="-35844355#3" to="756582323"/>
    </person>
    <person id="ped139" depart="235.54" type="ped_pedestrian">
        <walk from="735267044#0" to="829379070"/>
    </person>
    <person id="ped140" depart="237.24" type="ped_pedestrian">
        <walk from="680134266#1" to="736546735"/>
    </person>
    <person id="ped141" depart="238.93" type="ped_pedestrian">
        <walk from="-154930967#1" to="538881646#1"/>
    </person>
    <person id="ped142" depart="240.63" type="ped_pedestrian">
        <walk from="-736507107#1" to="758385090#0"/>
    </person>
    <person id="ped143" depart="242.32" type="ped_pedestrian">
        <walk from="679893535#3" to="735267042#1"/>
    </person>
    <person id="ped144" depart="244.02" type="ped_pedestrian">
        <walk from="680134266#1" to="-538881646#0"/>
    </person>
    <person id="ped145" depart="245.71" type="ped_pedestrian">
        <walk from="736474901#1" to="735260460#4"/>
    </person>
    <person id="ped146" depart="247.41" type="ped_pedestrian">
        <walk from="-40699405#1" to="680134287"/>
    </person>
    <person id="ped147" depart="249.10" type="ped_pedestrian">
        <walk from="178620697" to="-680134296#1"/>
    </person>
    <person id="ped148" depart="250.80" type="ped_pedestrian">
        <walk from="679893515#1" to="-416593369"/>
    </person>
    <person id="ped149" depart="252.49" type="ped_pedestrian">
        <walk from="-154929229" to="-35849881#3"/>
    </person>
    <person id="ped150" depart="254.19" type="ped_pedestrian">
        <walk from="-735260460#6" to="735267043"/>
    </person>
    <person id="ped151" depart="255.88" type="ped_pedestrian">
        <walk from="812837579" to="-581522790"/>
    </person>
    <person id="ped152" depart="257.57" type="ped_pedestrian">
        <walk from="363418293#6" to="154927646#0"/>
    </person>
    <person id="ped153" depart="259.27" type="ped_pedestrian">
        <walk from="839282229#1" to="314367715#1"/>
    </person>
    <person id="ped154" depart="260.96" type="ped_pedestrian">
        <walk from="767895312#1" to="-311370644"/>
    </person>
    <person id="ped155" depart="262.66" type="ped_pedestrian">
        <walk from="825193297#1" to="-35845992#0"/>
    </person>
    <person id="ped156" depart="264.35" type="ped_pedestrian">
        <walk from="812837561" to="-495671466#0"/>
    </person>
    <person id="ped157" depart="266.05" type="ped_pedestrian">
        <walk from="-306669891#1" to="168985785#0"/>
    </person>
    <person id="ped158" depart="267.74" type="ped_pedestrian">
        <walk from="495667622" to="-680166643"/>
    </person>
    <person id="ped159" depart="269.44" type="ped_pedestrian">
        <walk from="35845316#1" to="311242056#7"/>
    </person>
    <person id="ped160" depart="271.13" type="ped_pedestrian">
        <walk from="1131160342#0" to="35843038#9"/>
    </person>
    <person id="ped161" depart="272.83" type="ped_pedestrian">
        <walk from="-494634345#0" to="484776443#2"/>
    </person>
    <person id="ped162" depart="274.52" type="ped_pedestrian">
        <walk from="-1006110295#1" to="755157979"/>
    </person>
    <person id="ped163" depart="276.21" type="ped_pedestrian">
        <walk from="314599558#1" to="484867767#2"/>
    </person>
    <person id="ped164" depart="277.91" type="ped_pedestrian">
        <walk from="570258986" to="403846307"/>
    </person>
    <person id="ped165" depart="279.60" type="ped_pedestrian">
        <walk from="-812837559#1" to="-178616830#0"/>
    </person>
    <person id="ped166" depart="281.30" type="ped_pedestrian">
        <walk from="378733724#2" to="-735267040#5"/>
    </person>
    <person id="ped167" depart="282.99" type="ped_pedestrian">
        <walk from="-680166645#0" to="73339159#1"/>
    </person>
    <person id="ped168" depart="284.69" type="ped_pedestrian">
        <walk from="484867767#3" to="-679893548#0"/>
    </person>
    <person id="ped169" depart="286.38" type="ped_pedestrian">
        <walk from="-680166608" to="158426861"/>
    </person>
    <person id="ped170" depart="288.08" type="ped_pedestrian">
        <walk from="154929210#4" to="-679893525#4"/>
    </person>
    <person id="ped171" depart="289.77" type="ped_pedestrian">
        <walk from="-314371074#2" to="168978944#0"/>
    </person>
    <person id="ped172" depart="291.47" type="ped_pedestrian">
        <walk from="778590556#3" to="416593360"/>
    </person>
    <person id="ped173" depart="293.16" type="ped_pedestrian">
        <walk from="737862472" to="35849761#1"/>
    </person>
    <person id="ped174" depart="294.85" type="ped_pedestrian">
        <walk from="-679893548#3" to="328135416#2"/>
    </person>
    <person id="ped175" depart="296.55" type="ped_pedestrian">
        <walk from="-1006110265" to="-679567153#1"/>
    </person>
    <person id="ped176" depart="298.24" type="ped_pedestrian">
        <walk from="371470656" to="178621839#1"/>
    </person>
    <person id="ped177" depart="299.94" type="ped_pedestrian">
        <walk from="168987960#1" to="-373717118#2"/>
    </person>
    <person id="ped178" depart="301.63" type="ped_pedestrian">
        <walk from="181981605#1" to="737862467"/>
    </person>
    <person id="ped179" depart="303.33" type="ped_pedestrian">
        <walk from="-201660733" to="311360712#13"/>
    </person>
    <person id="ped180" depart="305.02" type="ped_pedestrian">
        <walk from="361105772#3" to="-736531266#1"/>
    </person>
    <person id="ped181" depart="306.72" type="ped_pedestrian">
        <walk from="680134294#2" to="581522802"/>
    </person>
    <person id="ped182" depart="308.41" type="ped_pedestrian">
        <walk from="40699405#3" to="-40699408#0"/>
    </person>
    <person id="ped183" depart="310.11" type="ped_pedestrian">
        <walk from="-361105772#3" to="-154930963#2"/>
    </person>
    <person id="ped184" depart="311.80" type="ped_pedestrian">
        <walk from="-484780666#1" to="201659165#4"/>
    </person>
    <person id="ped185" depart="313.50" type="ped_pedestrian">
        <walk from="73341599#2" to="-178621272#0"/>
    </person>
    <person id="ped186" depart="315.19" type="ped_pedestrian">
        <walk from="158528320#3" to="361105767#0"/>
    </person>
    <person id="ped187" depart="316.88" type="ped_pedestrian">
        <walk from="-360219942#0" to="428041421#5"/>
    </person>
    <person id="ped188" depart="318.58" type="ped_pedestrian">
        <walk from="201784232#1" to="-484774268#1"/>
    </person>
    <person id="ped189" depart="320.27" type="ped_pedestrian">
        <walk from="372546142" to="-1124353678#2"/>
    </person>
    <person id="ped190" depart="321.97" type="ped_pedestrian">
        <walk from="581522800#3" to="679567156#8"/>
    </person>
    <person id="ped191" depart="323.66" type="ped_pedestrian">
        <walk from="-35845335#4" to="812837544#1"/>
    </person>
    <person id="ped192" depart="325.36" type="ped_pedestrian">
        <walk from="-484782256#2" to="73339159#3"/>
    </person>
    <person id="ped193" depart="327.05" type="ped_pedestrian">
        <walk from="178616829#0" to="679893532"/>
    </person>
    <person id="ped194" depart="328.75" type="ped_pedestrian">
        <walk from="403846303#0" to="841514985#2"/>
    </person>
    <person id="ped195" depart="330.44" type="ped_pedestrian">
        <walk from="35844507#1" to="810461866#1"/>
    </person>
    <person id="ped196" depart="332.14" type="ped_pedestrian">
        <walk from="737269163" to="35846525#3"/>
    </person>
    <person id="ped197" depart="333.83" type="ped_pedestrian">
        <walk from="680166631#3" to="328135416#1"/>
    </person>
    <person id="ped198" depart="335.52" type="ped_pedestrian">
        <walk from="737840383#0" to="581254946#1"/>
    </person>
    <person id="ped199" depart="337.22" type="ped_pedestrian">
        <walk from="201659165#2" to="-495666904#2"/>
    </person>
    <person id="ped200" depart="338.91" type="ped_pedestrian">
        <walk from="679567149" to="311738812#1"/>
    </person>
    <person id="ped201" depart="340.61" type="ped_pedestrian">
        <walk from="35849881#9" to="-581254948#1"/>
    </person>
    <person id="ped202" depart="342.30" type="ped_pedestrian">
        <walk from="-178621844#0" to="-679555219#1"/>
    </person>
    <person id="ped203" depart="344.00" type="ped_pedestrian">
        <walk from="316433794#1" to="-347952868#3"/>
    </person>
    <person id="ped204" depart="345.69" type="ped_pedestrian">
        <walk from="-416593386#3" to="428041414"/>
    </person>
    <person id="ped205" depart="347.39" type="ped_pedestrian">
        <walk from="484774264#3" to="-178616053#1"/>
    </person>
    <person id="ped206" depart="349.08" type="ped_pedestrian">
        <walk from="156581274#2" to="316947430"/>
    </person>
    <person id="ped207" depart="350.78" type="ped_pedestrian">
        <walk from="168977074#1" to="-369839241"/>
    </person>
    <person id="ped208" depart="352.47" type="ped_pedestrian">
        <walk from="168978943#3" to="737868489#7"/>
    </person>
    <person id="ped209" depart="354.16" type="ped_pedestrian">
        <walk from="35844347#3" to="428041421#1"/>
    </person>
    <person id="ped210" depart="355.86" type="ped_pedestrian">
        <walk from="735260453#1" to="679567148#3"/>
    </person>
    <person id="ped211" depart="357.55" type="ped_pedestrian">
        <walk from="1006485177#0" to="-112552091"/>
    </person>
    <person id="ped212" depart="359.25" type="ped_pedestrian">
        <walk from="-738575614#2" to="594074462#3"/>
    </person>
    <person id="ped213" depart="360.94" type="ped_pedestrian">
        <walk from="735236445#3" to="812837537#1"/>
    </person>
    <person id="ped214" depart="362.64" type="ped_pedestrian">
        <walk from="168978091#0" to="581522780#3"/>
    </person>
    <person id="ped215" depart="364.33" type="ped_pedestrian">
        <walk from="327286257" to="35844873#8"/>
    </person>
    <person id="ped216" depart="366.03" type="ped_pedestrian">
        <walk from="-403846307" to="-403846305#6"/>
    </person>
    <person id="ped217" depart="367.72" type="ped_pedestrian">
        <walk from="168985931#2" to="-158427634#6"/>
    </person>
    <person id="ped218" depart="369.42" type="ped_pedestrian">
        <walk from="-736556437#3" to="416593373"/>
    </person>
    <person id="ped219" depart="371.11" type="ped_pedestrian">
        <walk from="154929230#0" to="-35844507#1"/>
    </person>
    <person id="ped220" depart="372.81" type="ped_pedestrian">
        <walk from="178622694#0" to="-316784633#2"/>
    </person>
    <person id="ped221" depart="374.50" type="ped_pedestrian">
        <walk from="35849871#1" to="-156581274#4"/>
    </person>
    <person id="ped222" depart="376.19" type="ped_pedestrian">
        <walk from="154493705#0" to="347948452#1"/>
    </person>
    <person id="ped223" depart="377.89" type="ped_pedestrian">
        <walk from="-156581276#0" to="364453109"/>
    </person>
    <person id="ped224" depart="379.58" type="ped_pedestrian">
        <walk from="-345728006" to="178621831"/>
    </person>
    <person id="ped225" depart="381.28" type="ped_pedestrian">
        <walk from="-168985931#3" to="1006485173#0"/>
    </person>
    <person id="ped226" depart="382.97" type="ped_pedestrian">
        <walk from="-372546144" to="-735260454#1"/>
    </person>
    <person id="ped227" depart="384.67" type="ped_pedestrian">