<?xml version="1.0" encoding="UTF-8"?>

<!-- generated on 2023-07-13 18:17:51.199521 by osmWebWizard.py v1_18_0+0000-03ecfdea036
<configuration>
    <net-file value="C:\Users\Rustam Mattiev\2023-07-13-18-17-30\osm.net.xml.gz"/>
    <output-trip-file value="C:\Users\Rustam Mattiev\2023-07-13-18-17-30\osm.truck.trips.xml"/>
    <route-file value="C:\Users\Rustam Mattiev\2023-07-13-18-17-30\osm.truck.rou.xml"/>
    <prefix value="truck"/>
    <trip-attributes value="departLane=&quot;best&quot;"/>
    <fringe-start-attributes value="departSpeed=&quot;max&quot;"/>
    <vehicle-class value="truck"/>
    <fringe-factor value="5"/>
    <vclass value="truck"/>
    <via-edge-types value="highway.motorway,highway.motorway_link,highway.trunk_link,highway.primary_link,highway.secondary_link,highway.tertiary_link"/>
    <min-distance value="600.0"/>
    <min-distance.fringe value="10.0"/>
    <remove-loops value="True"/>
    <validate value="True"/>
    <insertion-density value="8.0"/>
</configuration>
-->

<!-- generated on 2023-07-13 18:17:51 by Eclipse SUMO duarouter Version 1.18.0
<configuration xmlns:xsi="http://www.w3.org/2001/XMLSchema-instance" xsi:noNamespaceSchemaLocation="http://sumo.dlr.de/xsd/duarouterConfiguration.xsd">

    <input>
        <net-file value="C:\Users\Rustam Mattiev\2023-07-13-18-17-30\osm.net.xml.gz"/>
        <route-files value="C:\Users\Rustam Mattiev\2023-07-13-18-17-30\osm.truck.trips.xml"/>
    </input>

    <output>
        <output-file value="C:\Users\Rustam Mattiev\2023-07-13-18-17-30\osm.truck.trips.xml.tmp"/>
        <alternatives-output value="NUL"/>
        <write-trips value="true"/>
    </output>

    <processing>
        <remove-loops value="true"/>
    </processing>

    <time>
        <begin value="0.0"/>
        <end value="3600.0"/>
    </time>

    <report>
        <no-warnings value="true"/>
        <ignore-errors value="true"/>
        <no-step-log value="true"/>
    </report>

</configuration>
-->

<routes xmlns:xsi="http://www.w3.org/2001/XMLSchema-instance" xsi:noNamespaceSchemaLocation="http://sumo.dlr.de/xsd/routes_file.xsd">
    <vType id="truck_truck" vClass="truck"/>
    <trip id="truck0" type="truck_truck" depart="0.00" departLane="best" from="-349757784#5" to="-133270574#9"/>
    <trip id="truck1" type="truck_truck" depart="3.46" departLane="best" from="-35844834#12" to="-35844324#2"/>
    <trip id="truck3" type="truck_truck" depart="10.38" departLane="best" from="679893524#1" to="-133270585#3"/>
    <trip id="truck5" type="truck_truck" depart="17.30" departLane="best" from="-133270574#5" to="35844275#9"/>
    <trip id="truck7" type="truck_truck" depart="24.22" departLane="best" from="-35844291#3" to="-328640015#0"/>
    <trip id="truck8" type="truck_truck" depart="27.68" departLane="best" departSpeed="max" from="35845973#0" to="-125586592#0"/>
    <trip id="truck9" type="truck_truck" depart="31.14" departLane="best" from="-35845967#0" to="35844286#4"/>
    <trip id="truck10" type="truck_truck" depart="34.60" departLane="best" from="35845986#22" to="35843020#3"/>
    <trip id="truck11" type="truck_truck" depart="38.06" departLane="best" departSpeed="max" from="591307587#0" to="-35846309#0"/>
    <trip id="truck12" type="truck_truck" depart="41.52" departLane="best" from="35846218#5" to="332458752#5"/>
    <trip id="truck13" type="truck_truck" depart="44.98" departLane="best" from="-35845967#3" to="35844342#1"/>
    <trip id="truck14" type="truck_truck" depart="48.44" departLane="best" from="35845986#2" to="347948450#1"/>
    <trip id="truck15" type="truck_truck" depart="51.90" departLane="best" from="35846309#1" to="-327947729#0"/>
    <trip id="truck16" type="truck_truck" depart="55.36" departLane="best" from="35844293#1" to="154493699#11"/>
    <trip id="truck17" type="truck_truck" depart="58.82" departLane="best" from="-35844298#3" to="35845427#1"/>
    <trip id="truck18" type="truck_truck" depart="62.28" departLane="best" from="310909556#0" to="35844342#5"/>
    <trip id="truck19" type="truck_truck" depart="65.74" departLane="best" from="-327288962#0" to="-35845414#7"/>
    <trip id="truck20" type="truck_truck" depart="69.20" departLane="best" from="-349757784#1" to="-371237121#10"/>
    <trip id="truck22" type="truck_truck" depart="76.12" departLane="best" from="-35844547" to="42941553#4"/>
    <trip id="truck23" type="truck_truck" depart="79.58" departLane="best" from="-35843020#2" to="337515390#3"/>
    <trip id="truck25" type="truck_truck" depart="86.50" departLane="best" from="-35843043#2" to="-48049173#0"/>
    <trip id="truck26" type="truck_truck" depart="89.96" departLane="best" from="778590555#5" to="35843020#3"/>
    <trip id="truck27" type="truck_truck" depart="93.42" departLane="best" from="35846218#0" to="35845312#13"/>
    <trip id="truck28" type="truck_truck" depart="96.88" departLane="best" from="-35844302#0" to="-133270585#9"/>
    <trip id="truck30" type="truck_truck" depart="103.80" departLane="best" from="-35844275#8" to="-48049173#2"/>
    <trip id="truck33" type="truck_truck" depart="114.18" departLane="best" departSpeed="max" from="42941552" to="133057881#0"/>
    <trip id="truck34" type="truck_truck" depart="117.64" departLane="best" from="312891127#0" to="35844834#3"/>
    <trip id="truck35" type="truck_truck" depart="121.10" departLane="best" from="-317264298#4" to="369817110#6"/>
    <trip id="truck36" type="truck_truck" depart="124.56" departLane="best" from="48049173#10" to="-35844319#0"/>
    <trip id="truck37" type="truck_truck" depart="128.02" departLane="best" from="995279131" to="299080520#0"/>
    <trip id="truck38" type="truck_truck" depart="131.48" departLane="best" from="-317264298#4" to="154493699#2"/>
    <trip id="truck39" type="truck_truck" depart="134.94" departLane="best" from="327947729#5" to="349757784#6"/>
    <trip id="truck40" type="truck_truck" depart="138.40" departLane="best" from="-35845424#13" to="-694782913"/>
    <trip id="truck41" type="truck_truck" depart="141.86" departLane="best" from="987593666#0" to="310909556#5"/>
    <trip id="truck42" type="truck_truck" depart="145.32" departLane="best" from="-679893524#7" to="35846230#6"/>
    <trip id="truck43" type="truck_truck" depart="148.78" departLane="best" departSpeed="max" from="-125578297#6" to="35844329#1"/>
    <trip id="truck44" type="truck_truck" depart="152.24" departLane="best" from="-35844256" to="311690780#4"/>
    <trip id="truck45" type="truck_truck" depart="155.70" departLane="best" from="-35844547" to="35843020#4"/>
    <trip id="truck46" type="truck_truck" depart="159.16" departLane="best" from="-327947729#7" to="-984872684"/>
    <trip id="truck47" type="truck_truck" depart="162.62" departLane="best" from="-125578297#4" to="-540537300#13"/>
    <trip id="truck49" type="truck_truck" depart="169.54" departLane="best" from="145659797#1" to="35843197#0"/>
    <trip id="truck51" type="truck_truck" depart="176.46" departLane="best" from="-35845414#5" to="35843020#2"/>
    <trip id="truck52" type="truck_truck" depart="179.92" departLane="best" from="-35844834#7" to="311690780#6"/>
    <trip id="truck53" type="truck_truck" depart="183.38" departLane="best" from="35845312#6" to="-311690779"/>
    <trip id="truck55" type="truck_truck" depart="190.30" departLane="best" from="-133057881#0" to="42941553#15"/>
    <trip id="truck56" type="truck_truck" depart="193.76" departLane="best" from="35845424#5" to="201662464#2"/>
    <trip id="truck58" type="truck_truck" depart="200.68" departLane="best" from="-311740851#1" to="154493699#11"/>
    <trip id="truck62" type="truck_truck" depart="214.52" departLane="best" from="-679893524#2" to="-35844298#0"/>
    <trip id="truck63" type="truck_truck" depart="217.98" departLane="best" from="-302363668#3" to="35844342#2"/>
    <trip id="truck64" type="truck_truck" depart="221.44" departLane="best" from="35844262#1" to="-35845986#0"/>
    <trip id="truck66" type="truck_truck" depart="228.36" departLane="best" from="-778590555#5" to="-302363551#5"/>
    <trip id="truck67" type="truck_truck" depart="231.82" departLane="best" departSpeed="max" from="-328640015#2" to="-35844329#0"/>
    <trip id="truck68" type="truck_truck" depart="235.28" departLane="best" from="302363551#4" to="35843019#0"/>
    <trip id="truck69" type="truck_truck" depart="238.74" departLane="best" from="-35844302#0" to="371237121#3"/>
    <trip id="truck70" type="truck_truck" depart="242.20" departLane="best" departSpeed="max" from="35846309#0" to="-299080520#2"/>
    <trip id="truck71" type="truck_truck" depart="245.66" departLane="best" from="-35844329#0" to="35843197#2"/>
    <trip id="truck72" type="truck_truck" depart="249.12" departLane="best" from="35844286#1" to="-332458753"/>
    <trip id="truck73" type="truck_truck" depart="252.58" departLane="best" from="48049173#4" to="-327212723#1"/>
    <trip id="truck74" type="truck_truck" depart="256.04" departLane="best" from="-133270574#10" to="35845312#7"/>
    <trip id="truck75" type="truck_truck" depart="259.50" departLane="best" from="318298137#6" to="-778590557#2"/>
    <trip id="truck76" type="truck_truck" depart="262.96" departLane="best" from="679893524#3" to="133270574#6"/>
    <trip id="truck77" type="truck_truck" depart="266.42" departLane="best" from="35844487#3" to="-35843204#4"/>
    <trip id="truck78" type="truck_truck" depart="269.87" departLane="best" from="756582327#2" to="-318298137#3"/>
    <trip id="truck79" type="truck_truck" depart="273.33" departLane="best" from="48049173#6" to="-35846309#1"/>
    <trip id="truck80" type="truck_truck" depart="276.79" departLane="best" from="35843204#2" to="125578297#1"/>
    <trip id="truck81" type="truck_truck" depart="280.25" departLane="best" from="679893524#1" to="-35845414#8"/>
    <trip id="truck83" type="truck_truck" depart="287.17" departLane="best" from="984872684" to="-35846309#1"/>
    <trip id="truck85" type="truck_truck" depart="294.09" departLane="best" from="-995279134" to="-35845986#21"/>
    <trip id="truck87" type="truck_truck" depart="301.01" departLane="best" from="133270585#8" to="-35844298#2"/>
    <trip id="truck88" type="truck_truck" depart="304.47" departLane="best" from="48049173#3" to="201662464#3"/>
    <trip id="truck89" type="truck_truck" depart="307.93" departLane="best" from="-369817110#6" to="756582327#4"/>
    <trip id="truck90" type="truck_truck" depart="311.39" departLane="best" from="-35844537#0" to="35845312#7"/>
    <trip id="truck91" type="truck_truck" depart="314.85" departLane="best" departSpeed="max" from="125586592#0" to="740661097#1"/>
    <trip id="truck92" type="truck_truck" depart="318.31" departLane="best" departSpeed="max" from="591307587#0" to="-984872684"/>
    <trip id="truck94" type="truck_truck" depart="325.23" departLane="best" from="-35843019#4" to="35845967#0"/>
    <trip id="truck95" type="truck_truck" depart="328.69" departLane="best" from="-302363668#7" to="35844535#1"/>
    <trip id="truck96" type="truck_truck" depart="332.15" departLane="best" from="154493699#1" to="35846218#6"/>
    <trip id="truck97" type="truck_truck" depart="335.61" departLane="best" from="-310909556#0" to="35844242#1"/>
    <trip id="truck99" type="truck_truck" depart="342.53" departLane="best" from="-35844324#0" to="-327947729#7"/>
    <trip id="truck100" type="truck_truck" depart="345.99" departLane="best" from="-369817110#3" to="35844535#0"/>
    <trip id="truck102" type="truck_truck" depart="352.91" departLane="best" from="591307587#3" to="327947729#8"/>
    <trip id="truck103" type="truck_truck" depart="356.37" departLane="best" from="-35844329#1" to="-540537300#5"/>
    <trip id="truck104" type="truck_truck" depart="359.83" departLane="best" from="35843193#6" to="-35845973#0"/>
    <trip id="truck105" type="truck_truck" depart="363.29" departLane="best" departSpeed="max" from="-35845495#3" to="35844549#0"/>
    <trip id="truck106" type="truck_truck" depart="366.75" departLane="best" from="302363551#5" to="-128565511"/>
    <trip id="truck107" type="truck_truck" depart="370.21" departLane="best" from="995279132" to="987593666#0"/>
    <trip id="truck108" type="truck_truck" depart="373.67" departLane="best" from="-302363668#0" to="-35844298#1"/>
    <trip id="truck109" type="truck_truck" depart="377.13" departLane="best" from="-35844537#0" to="42941553#17"/>
    <trip id="truck112" type="truck_truck" depart="387.51" departLane="best" from="35845986#4" to="-35844293#0"/>
    <trip id="truck113" type="truck_truck" depart="390.97" departLane="best" from="-328021283#1" to="778590555#2"/>
    <trip id="truck114" type="truck_truck" depart="394.43" departLane="best" from="-35843043#4" to="-125586592#0"/>
    <trip id="truck115" type="truck_truck" depart="397.89" departLane="best" from="35845973#5" to="35845967#4"/>
    <trip id="truck117" type="truck_truck" depart="404.81" departLane="best" from="333378696#1" to="-327947729#1"/>
    <trip id="truck119" type="truck_truck" depart="411.73" departLane="best" from="-35844834#1" to="332458753"/>
    <trip id="truck120" type="truck_truck" depart="415.19" departLane="best" from="35844324#1" to="-35844286#4"/>
    <trip id="truck121" type="truck_truck" depart="418.65" departLane="best" from="-349757784#0" to="35844834#5"/>
    <trip id="truck122" type="truck_truck" depart="422.11" departLane="best" departSpeed="max" from="134120210" to="371237121#3"/>
    <trip id="truck123" type="truck_truck" depart="425.57" departLane="best" from="679893524#3" to="-35845414#6"/>
    <trip id="truck125" type="truck_truck" depart="432.49" departLane="best" from="-349757784#3" to="35844834#2"/>
    <trip id="truck126" type="truck_truck" depart="435.95" departLane="best" from="679893524#7" to="-125586592#0"/>
    <trip id="truck127" type="truck_truck" depart="439.41" departLane="best" from="-302363668#2" to="362197199#1"/>
    <trip id="truck129" type="truck_truck" depart="446.33" departLane="best" from="35845986#5" to="-327947729#7"/>
    <trip id="truck130" type="truck_truck" depart="449.79" departLane="best" from="35845424#6" to="369817110#7"/>
    <trip id="truck131" type="truck_truck" depart="453.25" departLane="best" from="35845424#6" to="35846230#6"/>
    <trip id="truck132" type="truck_truck" depart="456.71" departLane="best" departSpeed="max" from="371237121#0" to="-35844293#2"/>
    <trip id="truck133" type="truck_truck" depart="460.17" departLane="best" from="-35844342#3" to="318298137#8"/>
    <trip id="truck134" type="truck_truck" depart="463.63" departLane="best" from="35845312#7" to="362197200#0"/>
    <trip id="truck135" type="truck_truck" depart="467.09" departLane="best" from="35853671" to="737281059#2"/>
    <trip id="truck137" type="truck_truck" depart="474.01" departLane="best" from="-133270574#11" to="-35844500#0"/>
    <trip id="truck138" type="truck_truck" depart="477.47" departLane="best" from="35845986#13" to="42941553#17"/>
    <trip id="truck139" type="truck_truck" depart="480.93" departLane="best" departSpeed="max" from="35845973#0" to="35844834#9"/>
    <trip id="truck140" type="truck_truck" depart="484.39" departLane="best" from="35845414#7" to="-327212723#1"/>
    <trip id="truck142" type="truck_truck" depart="491.31" departLane="best" from="-35844293#1" to="35845516"/>
    <trip id="truck143" type="truck_truck" depart="494.77" departLane="best" departSpeed="max" from="-126815762#0" to="-35845973#2"/>
    <trip id="truck144" type="truck_truck" depart="498.23" departLane="best" from="35845424#5" to="-35844332#1"/>
    <trip id="truck145" type="truck_truck" depart="501.69" departLane="best" from="-133270574#10" to="-35844275#3"/>
    <trip id="truck146" type="truck_truck" depart="505.15" departLane="best" from="35845973#3" to="-35846309#5"/>
    <trip id="truck147" type="truck_truck" depart="508.61" departLane="best" from="679893524#2" to="-35845424#1"/>
    <trip id="truck148" type="truck_truck" depart="512.07" departLane="best" from="35843019#2" to="-573176749#3"/>
    <trip id="truck149" type="truck_truck" depart="515.53" departLane="best" from="740661097#3" to="311690780#3"/>
    <trip id="truck150" type="truck_truck" depart="518.99" departLane="best" from="525700449" to="327947729#1"/>
    <trip id="truck151" type="truck_truck" depart="522.45" departLane="best" from="591307587#2" to="-35844834#7"/>
    <trip id="truck152" type="truck_truck" depart="525.91" departLane="best" from="-327947729#3" to="-984872684"/>
    <trip id="truck153" type="truck_truck" depart="529.37" departLane="best" from="35844487#2" to="-35845986#12"/>
    <trip id="truck154" type="truck_truck" depart="532.83" departLane="best" from="327947729#3" to="299080520#2"/>
    <trip id="truck155" type="truck_truck" depart="536.29" departLane="best" from="-369817111#0" to="-327947724"/>
    <trip id="truck156" type="truck_truck" depart="539.75" departLane="best" from="35844512#0" to="-35844298#2"/>
    <trip id="truck158" type="truck_truck" depart="546.67" departLane="best" from="-302363668#2" to="35844329#0"/>
    <trip id="truck159" type="truck_truck" depart="550.13" departLane="best" from="-35844519#4" to="-35843204#1"/>
    <trip id="truck162" type="truck_truck" depart="560.51" departLane="best" departSpeed="max" from="-35845495#3" to="35846218#1"/>
    <trip id="truck163" type="truck_truck" depart="563.97" departLane="best" from="35844329#0" to="-35845973#0"/>
    <trip id="truck164" type="truck_truck" depart="567.43" departLane="best" from="35845424#8" to="-591307587#1"/>
    <trip id="truck165" type="truck_truck" depart="570.89" departLane="best" from="48049173#6" to="-35845518"/>
    <trip id="truck166" type="truck_truck" depart="574.35" departLane="best" from="-332458752#4" to="694707003#0"/>
    <trip id="truck168" type="truck_truck" depart="581.27" departLane="best" from="371237121#5" to="-345550635#0"/>
    <trip id="truck171" type="truck_truck" depart="591.65" departLane="best" from="-694707003#2" to="327947729#3"/>
    <trip id="truck173" type="truck_truck" depart="598.57" departLane="best" from="-778590557#5" to="-35844298#2"/>
    <trip id="truck174" type="truck_truck" depart="602.03" departLane="best" from="133270574#11" to="369817110#8"/>
    <trip id="truck176" type="truck_truck" depart="608.95" departLane="best" from="-311740851#0" to="-302363551#2"/>
    <trip id="truck177" type="truck_truck" depart="612.41" departLane="best" from="-347948450#3" to="-35846309#0"/>
    <trip id="truck178" type="truck_truck" depart="615.87" departLane="best" departSpeed="max" from="35845986#0" to="35844549#0"/>
    <trip id="truck179" type="truck_truck" depart="619.33" departLane="best" from="35844242#1" to="-133270574#8"/>
    <trip id="truck180" type="truck_truck" depart="622.79" departLane="best" from="-35844332#1" to="-133270585#5"/>
    <trip id="truck181" type="truck_truck" depart="626.25" departLane="best" from="35846218#8" to="-302363551#0"/>
    <trip id="truck182" type="truck_truck" depart="629.71" departLane="best" from="540537300#6" to="349757784#6"/>
    <trip id="truck184" type="truck_truck" depart="636.63" departLane="best" from="134120212" to="35844519#2"/>
    <trip id="truck187" type="truck_truck" depart="647.01" departLane="best" from="-327947729#1" to="-740661097#4"/>
    <trip id="truck189" type="truck_truck" depart="653.93" departLane="best" from="-201662464#4" to="154493699#6"/>
    <trip id="truck190" type="truck_truck" depart="657.39" departLane="best" from="-35844342#3" to="35846218#1"/>
    <trip id="truck191" type="truck_truck" depart="660.85" departLane="best" departSpeed="max" from="125586592#0" to="35845424#13"/>
    <trip id="truck196" type="truck_truck" depart="678.15" departLane="best" departSpeed="max" from="371237121#0" to="35844519#0"/>
    <trip id="truck197" type="truck_truck" depart="681.61" departLane="best" from="-133270574#2" to="-35844834#14"/>
    <trip id="truck198" type="truck_truck" depart="685.07" departLane="best" from="-35844342#1" to="35843020#0"/>
    <trip id="truck201" type="truck_truck" depart="695.45" departLane="best" from="-302363668#5" to="-35845424#5"/>
    <trip id="truck202" type="truck_truck" depart="698.91" departLane="best" from="-35844549#4" to="-35845986#18"/>
    <trip id="truck203" type="truck_truck" depart="702.37" departLane="best" from="-302363668#4" to="-347948450#1"/>
    <trip id="truck204" type="truck_truck" depart="705.83" departLane="best" from="35844293#3" to="-219362284"/>
    <trip id="truck205" type="truck_truck" depart="709.29" departLane="best" from="540537300#11" to="311740851#1"/>
    <trip id="truck206" type="truck_truck" depart="712.75" departLane="best" from="540537300#8" to="-35844291#3"/>
    <trip id="truck207" type="truck_truck" depart="716.21" departLane="best" from="591307587#4" to="371237121#10"/>
    <trip id="truck208" type="truck_truck" depart="719.67" departLane="best" from="-317264298#4" to="35844286#1"/>
    <trip id="truck209" type="truck_truck" depart="723.13" departLane="best" departSpeed="max" from="35846309#0" to="35844834#5"/>
    <trip id="truck210" type="truck_truck" depart="726.59" departLane="best" departSpeed="max" from="-369817110#8" to="-125586592#0"/>
    <trip id="truck211" type="truck_truck" depart="730.05" departLane="best" from="-35846230#6" to="35844549#2"/>
    <trip id="truck212" type="truck_truck" depart="733.51" departLane="best" from="-35846230#3" to="-540537300#13"/>
    <trip id="truck213" type="truck_truck" depart="736.97" departLane="best" from="591307587#3" to="35844535#0"/>
    <trip id="truck214" type="truck_truck" depart="740.43" departLane="best" from="-310909556#4" to="332458752#5"/>
    <trip id="truck215" type="truck_truck" depart="743.89" departLane="best" from="-35844291#3" to="-35844319#0"/>
    <trip id="truck216" type="truck_truck" depart="747.35" departLane="best" from="-778590555#3" to="133270585#15"/>
    <trip id="truck219" type="truck_truck" depart="757.73" departLane="best" from="128565511" to="332458752#0"/>
    <trip id="truck220" type="truck_truck" depart="761.19" departLane="best" from="-332458753" to="-133270585#12"/>
    <trip id="truck221" type="truck_truck" depart="764.65" departLane="best" from="-133270574#6" to="35843043#1"/>
    <trip id="truck222" type="truck_truck" depart="768.11" departLane="best" from="-345727211#0" to="133270574#0"/>
    <trip id="truck223" type="truck_truck" depart="771.57" departLane="best" from="154493699#6" to="-48049173#0"/>
    <trip id="truck224" type="truck_truck" depart="775.03" departLane="best" from="-35844275#8" to="-35845986#7"/>
    <trip id="truck225" type="truck_truck" depart="778.49" departLane="best" from="-35844834#10" to="-35845986#17"/>
    <trip id="truck226" type="truck_truck" depart="781.95" departLane="best" from="-35844494#1" to="302363668#5"/>
    <trip id="truck227" type="truck_truck" depart="785.41" departLane="best" from="-133057881#0" to="311690780#7"/>
    <trip id="truck228" type="truck_truck" depart="788.87" departLane="best" from="-35843043#1" to="35844549#3"/>
    <trip id="truck229" type="truck_truck" depart="792.33" departLane="best" from="540537300#7" to="-35844286#0"/>
    <trip id="truck230" type="truck_truck" depart="795.79" departLane="best" from="-133057881#2" to="-35843020#0"/>
    <trip id="truck231" type="truck_truck" depart="799.25" departLane="best" from="35844291#0" to="35844834#7"/>
    <trip id="truck233" type="truck_truck" depart="806.16" departLane="best" from="-35844549#1" to="-327947729#0"/>
    <trip id="truck234" type="truck_truck" depart="809.62" departLane="best" departSpeed="max" from="35845986#0" to="679893524#0"/>
    <trip id="truck235" type="truck_truck" depart="813.08" departLane="best" from="-327947729#3" to="-133270574#9"/>
    <trip id="truck237" type="truck_truck" depart="820.00" departLane="best" departSpeed="max" from="591307587#0" to="-540537300#6"/>
    <trip id="truck238" type="truck_truck" depart="823.46" departLane="best" from="35844319#1" to="-302363551#4"/>
    <trip id="truck239" type="truck_truck" depart="826.92" departLane="best" from="35844275#5" to="349757784#6"/>
    <trip id="truck241" type="truck_truck" depart="833.84" departLane="best" departSpeed="max" from="-328640015#2" to="756582327#1"/>
    <trip id="truck243" type="truck_truck" depart="840.76" departLane="best" from="679893524#8" to="-371237121#4"/>
    <trip id="truck244" type="truck_truck" depart="844.22" departLane="best" from="154493699#4" to="35846309#3"/>
    <trip id="truck245" type="truck_truck" depart="847.68" departLane="best" from="35846218#8" to="-35845973#1"/>
    <trip id="truck246" type="truck_truck" depart="851.14" departLane="best" from="-327947729#0" to="-540537300#9"/>
    <trip id="truck247" type="truck_truck" depart="854.60" departLane="best" from="35844298#0" to="-987593666#0"/>
    <trip id="truck248" type="truck_truck" depart="858.06" departLane="best" from="-35844549#2" to="35845495#0"/>
    <trip id="truck249" type="truck_truck" depart="861.52" departLane="best" from="-302363668#2" to="-145659797#1"/>
    <trip id="truck250" type="truck_truck" depart="864.98" departLane="best" from="-778590555#2" to="35844342#3"/>
    <trip id="truck251" type="truck_truck" depart="868.44" departLane="best" from="-35844549#1" to="35846218#5"/>
    <trip id="truck252" type="truck_truck" depart="871.90" departLane="best" from="-35845986#20" to="-310909556#3"/>
    <trip id="truck253" type="truck_truck" depart="875.36" departLane="best" from="364719378#0" to="35844519#2"/>
    <trip id="truck254" type="truck_truck" depart="878.82" departLane="best" from="-126815762#1" to="337515390#5"/>
    <trip id="truck255" type="truck_truck" depart="882.28" departLane="best" from="-369817110#6" to="-133270585#16"/>
    <trip id="truck256" type="truck_truck" depart="885.74" departLane="best" from="-35846230#0" to="-35843204#3"/>
    <trip id="truck257" type="truck_truck" depart="889.20" departLane="best" from="-35844275#9" to="-35845424#1"/>
    <trip id="truck259" type="truck_truck" depart="896.12" departLane="best" from="35844291#2" to="-35845414#5"/>
    <trip id="truck260" type="truck_truck" depart="899.58" departLane="best" departSpeed="max" from="-125578297#6" to="-145659797#1"/>
    <trip id="truck261" type="truck_truck" depart="903.04" departLane="best" departSpeed="max" from="134120210" to="35844834#11"/>
    <trip id="truck263" type="truck_truck" depart="909.96" departLane="best" departSpeed="max" from="134120210" to="35845414#4"/>
    <trip id="truck264" type="truck_truck" depart="913.42" departLane="best" from="317264298#0" to="-133270585#16"/>
    <trip id="truck265" type="truck_truck" depart="916.88" departLane="best" from="-299080520#4" to="-778590555#0"/>
    <trip id="truck267" type="truck_truck" depart="923.80" departLane="best" from="-35844494#0" to="-327947729#8"/>
    <trip id="truck268" type="truck_truck" depart="927.26" departLane="best" from="-35843378" to="-327947729#6"/>
    <trip id="truck269" type="truck_truck" depart="930.72" departLane="best" departSpeed="max" from="-35843197#2" to="-35844302#1"/>
    <trip id="truck270" type="truck_truck" depart="934.18" departLane="best" from="133270585#4" to="35844329#2"/>
    <trip id="truck271" type="truck_truck" depart="937.64" departLane="best" from="737281059#2" to="302363668#7"/>
    <trip id="truck272" type="truck_truck" depart="941.10" departLane="best" from="-35844834#7" to="-318298137#5"/>
    <trip id="truck274" type="truck_truck" depart="948.02" departLane="best" from="35843193#4" to="-128565511"/>
    <trip id="truck275" type="truck_truck" depart="951.48" departLane="best" from="302363551#4" to="35845414#3"/>
    <trip id="truck280" type="truck_truck" depart="968.78" departLane="best" departSpeed="max" from="-35843197#2" to="-154493699#9"/>
    <trip id="truck281" type="truck_truck" depart="972.24" departLane="best" from="540537300#1" to="133869628"/>
    <trip id="truck282" type="truck_truck" depart="975.70" departLane="best" from="35845986#10" to="-573176749#3"/>
    <trip id="truck283" type="truck_truck" depart="979.16" departLane="best" from="-302363668#1" to="349757784#6"/>
    <trip id="truck284" type="truck_truck" depart="982.62" departLane="best" from="154927649#1" to="-35843019#3"/>
    <trip id="truck285" type="truck_truck" depart="986.08" departLane="best" from="312891127#10" to="-35845973#1"/>
    <trip id="truck286" type="truck_truck" depart="989.54" departLane="best" from="778590557#5" to="327947729#5"/>
    <trip id="truck288" type="truck_truck" depart="996.46" departLane="best" from="35845424#11" to="-35844329#1"/>
    <trip id="truck289" type="truck_truck" depart="999.92" departLane="best" departSpeed="max" from="219362284" to="125578297#6"/>
    <trip id="truck290" type="truck_truck" depart="1003.38" departLane="best" from="-778590557#5" to="35846230#6"/>
    <trip id="truck291" type="truck_truck" depart="1006.84" departLane="best" from="778590555#5" to="-35845973#2"/>
    <trip id="truck292" type="truck_truck" depart="1010.30" departLane="best" from="-332458752#4" to="337515390#4"/>
    <trip id="truck293" type="truck_truck" depart="1013.76" departLane="best" from="-35844519#1" to="-48049173#9"/>
    <trip id="truck294" type="truck_truck" depart="1017.22" departLane="best" from="-35844275#4" to="-35844293#3"/>
    <trip id="truck298" type="truck_truck" depart="1031.06" departLane="best" from="35844291#4" to="125578297#6"/>
    <trip id="truck299" type="truck_truck" depart="1034.52" departLane="best" from="-35844275#2" to="42941553#10"/>
    <trip id="truck300" type="truck_truck" depart="1037.98" departLane="best" from="35845414#8" to="349757784#4"/>
    <trip id="truck303" type="truck_truck" depart="1048.36" departLane="best" from="35843020#2" to="371237121#6"/>
    <trip id="truck304" type="truck_truck" depart="1051.82" departLane="best" from="35845986#16" to="-299080520#3"/>
    <trip id="truck307" type="truck_truck" depart="1062.20" departLane="best" from="35844275#3" to="35844291#0"/>