<?xml version="1.0" encoding="UTF-8"?>

<!-- generated on 2023-07-13 18:17:40.853615 by osmWebWizard.py v1_18_0+0000-03ecfdea036
<configuration>
    <net-file value="C:\Users\Rustam Mattiev\2023-07-13-18-17-30\osm.net.xml.gz"/>
    <output-trip-file value="C:\Users\Rustam Mattiev\2023-07-13-18-17-30\osm.bus.trips.xml"/>
    <route-file value="C:\Users\Rustam Mattiev\2023-07-13-18-17-30\osm.bus.rou.xml"/>
    <prefix value="bus"/>
    <trip-attributes value="departLane=&quot;best&quot;"/>
    <fringe-start-attributes value="departSpeed=&quot;max&quot;"/>
    <vehicle-class value="bus"/>
    <fringe-factor value="5"/>
    <vclass value="bus"/>
    <via-edge-types value="highway.motorway,highway.motorway_link,highway.trunk_link,highway.primary_link,highway.secondary_link,highway.tertiary_link"/>
    <min-distance value="600.0"/>
    <min-distance.fringe value="10.0"/>
    <remove-loops value="True"/>
    <validate value="True"/>
    <insertion-density value="4.0"/>
</configuration>
-->

<!-- generated on 2023-07-13 18:17:40 by Eclipse SUMO duarouter Version 1.18.0
<configuration xmlns:xsi="http://www.w3.org/2001/XMLSchema-instance" xsi:noNamespaceSchemaLocation="http://sumo.dlr.de/xsd/duarouterConfiguration.xsd">

    <input>
        <net-file value="C:\Users\Rustam Mattiev\2023-07-13-18-17-30\osm.net.xml.gz"/>
        <route-files value="C:\Users\Rustam Mattiev\2023-07-13-18-17-30\osm.bus.trips.xml"/>
    </input>

    <output>
        <output-file value="C:\Users\Rustam Mattiev\2023-07-13-18-17-30\osm.bus.trips.xml.tmp"/>
        <alternatives-output value="NUL"/>
        <write-trips value="true"/>
    </output>

    <processing>
        <remove-loops value="true"/>
    </processing>

    <time>
        <begin value="0.0"/>
        <end value="3600.0"/>
    </time>

    <report>
        <no-warnings value="true"/>
        <ignore-errors value="true"/>
        <no-step-log value="true"/>
    </report>

</configuration>
-->

<routes xmlns:xsi="http://www.w3.org/2001/XMLSchema-instance" xsi:noNamespaceSchemaLocation="http://sumo.dlr.de/xsd/routes_file.xsd">
    <vType id="bus_bus" vClass="bus"/>
    <trip id="bus0" type="bus_bus" depart="0.00" departLane="best" from="-349757784#5" to="-133270574#9"/>
    <trip id="bus1" type="bus_bus" depart="6.92" departLane="best" from="-35844834#12" to="-35844324#2"/>
    <trip id="bus3" type="bus_bus" depart="20.76" departLane="best" from="679893524#1" to="-133270585#3"/>
    <trip id="bus5" type="bus_bus" depart="34.60" departLane="best" from="-133270574#5" to="35844275#9"/>
    <trip id="bus7" type="bus_bus" depart="48.44" departLane="best" from="-35844291#3" to="-328640015#0"/>
    <trip id="bus8" type="bus_bus" depart="55.36" departLane="best" departSpeed="max" from="35845973#0" to="-125586592#0"/>
    <trip id="bus9" type="bus_bus" depart="62.28" departLane="best" from="-35845967#0" to="35844286#4"/>
    <trip id="bus10" type="bus_bus" depart="69.20" departLane="best" from="35845986#22" to="35843020#3"/>
    <trip id="bus11" type="bus_bus" depart="76.12" departLane="best" departSpeed="max" from="591307587#0" to="-35846309#0"/>
    <trip id="bus12" type="bus_bus" depart="83.04" departLane="best" from="35846218#5" to="332458752#5"/>
    <trip id="bus13" type="bus_bus" depart="89.96" departLane="best" from="-35845967#3" to="35844342#1"/>
    <trip id="bus14" type="bus_bus" depart="96.88" departLane="best" from="35845986#2" to="347948450#1"/>
    <trip id="bus15" type="bus_bus" depart="103.80" departLane="best" from="35846309#1" to="-327947729#0"/>
    <trip id="bus16" type="bus_bus" depart="110.72" departLane="best" from="35844293#1" to="154493699#11"/>
    <trip id="bus17" type="bus_bus" depart="117.64" departLane="best" from="-35844298#3" to="35845427#1"/>
    <trip id="bus18" type="bus_bus" depart="124.56" departLane="best" from="310909556#0" to="35844342#5"/>
    <trip id="bus19" type="bus_bus" depart="131.48" departLane="best" from="-327288962#0" to="-35845414#7"/>
    <trip id="bus20" type="bus_bus" depart="138.40" departLane="best" from="-349757784#1" to="-371237121#10"/>
    <trip id="bus22" type="bus_bus" depart="152.24" departLane="best" from="-35844547" to="42941553#4"/>
    <trip id="bus23" type="bus_bus" depart="159.16" departLane="best" from="-35843020#2" to="337515390#3"/>
    <trip id="bus25" type="bus_bus" depart="173.00" departLane="best" from="-35843043#2" to="-48049173#0"/>
    <trip id="bus26" type="bus_bus" depart="179.92" departLane="best" from="778590555#5" to="35843020#3"/>
    <trip id="bus27" type="bus_bus" depart="186.84" departLane="best" from="35846218#0" to="35845312#13"/>
    <trip id="bus28" type="bus_bus" depart="193.76" departLane="best" from="-35844302#0" to="-133270585#9"/>
    <trip id="bus30" type="bus_bus" depart="207.60" departLane="best" from="-35844275#8" to="-48049173#2"/>
    <trip id="bus33" type="bus_bus" depart="228.36" departLane="best" departSpeed="max" from="42941552" to="133057881#0"/>
    <trip id="bus34" type="bus_bus" depart="235.28" departLane="best" from="312891127#0" to="35844834#3"/>
    <trip id="bus35" type="bus_bus" depart="242.20" departLane="best" from="-317264298#4" to="369817110#6"/>
    <trip id="bus36" type="bus_bus" depart="249.12" departLane="best" from="48049173#10" to="-35844319#0"/>
    <trip id="bus37" type="bus_bus" depart="256.04" departLane="best" from="995279131" to="299080520#0"/>
    <trip id="bus38" type="bus_bus" depart="262.96" departLane="best" from="-317264298#4" to="154493699#2"/>
    <trip id="bus39" type="bus_bus" depart="269.87" departLane="best" from="327947729#5" to="349757784#6"/>
    <trip id="bus40" type="bus_bus" depart="276.79" departLane="best" from="-35845424#13" to="-694782913"/>
    <trip id="bus41" type="bus_bus" depart="283.71" departLane="best" from="987593666#0" to="310909556#5"/>
    <trip id="bus42" type="bus_bus" depart="290.63" departLane="best" from="-679893524#7" to="35846230#6"/>
    <trip id="bus43" type="bus_bus" depart="297.55" departLane="best" departSpeed="max" from="-125578297#6" to="35844329#1"/>
    <trip id="bus44" type="bus_bus" depart="304.47" departLane="best" from="-35844256" to="311690780#4"/>
    <trip id="bus45" type="bus_bus" depart="311.39" departLane="best" from="-35844547" to="35843020#4"/>
    <trip id="bus46" type="bus_bus" depart="318.31" departLane="best" from="-327947729#7" to="-984872684"/>
    <trip id="bus47" type="bus_bus" depart="325.23" departLane="best" from="-125578297#4" to="-540537300#13"/>
    <trip id="bus49" type="bus_bus" depart="339.07" departLane="best" from="145659797#1" to="35843197#0"/>
    <trip id="bus51" type="bus_bus" depart="352.91" departLane="best" from="-35845414#5" to="35843020#2"/>
    <trip id="bus52" type="bus_bus" depart="359.83" departLane="best" from="-35844834#7" to="311690780#6"/>
    <trip id="bus53" type="bus_bus" depart="366.75" departLane="best" from="35845312#6" to="-311690779"/>
    <trip id="bus55" type="bus_bus" depart="380.59" departLane="best" from="-133057881#0" to="42941553#15"/>
    <trip id="bus56" type="bus_bus" depart="387.51" departLane="best" from="35845424#5" to="201662464#2"/>
    <trip id="bus58" type="bus_bus" depart="401.35" departLane="best" from="-311740851#1" to="154493699#11"/>
    <trip id="bus62" type="bus_bus" depart="429.03" departLane="best" from="-679893524#2" to="-35844298#0"/>
    <trip id="bus63" type="bus_bus" depart="435.95" departLane="best" from="-302363668#3" to="35844342#2"/>
    <trip id="bus64" type="bus_bus" depart="442.87" departLane="best" from="35844262#1" to="-35845986#0"/>
    <trip id="bus66" type="bus_bus" depart="456.71" departLane="best" from="-778590555#5" to="-302363551#5"/>
    <trip id="bus67" type="bus_bus" depart="463.63" departLane="best" departSpeed="max" from="-328640015#2" to="-35844329#0"/>
    <trip id="bus68" type="bus_bus" depart="470.55" departLane="best" from="302363551#4" to="35843019#0"/>
    <trip id="bus69" type="bus_bus" depart="477.47" departLane="best" from="-35844302#0" to="371237121#3"/>
    <trip id="bus70" type="bus_bus" depart="484.39" departLane="best" departSpeed="max" from="35846309#0" to="-299080520#2"/>
    <trip id="bus71" type="bus_bus" depart="491.31" departLane="best" from="-35844329#0" to="35843197#2"/>
    <trip id="bus72" type="bus_bus" depart="498.23" departLane="best" from="35844286#1" to="-332458753"/>
    <trip id="bus73" type="bus_bus" depart="505.15" departLane="best" from="48049173#4" to="-327212723#1"/>
    <trip id="bus74" type="bus_bus" depart="512.07" departLane="best" from="-133270574#10" to="35845312#7"/>
    <trip id="bus75" type="bus_bus" depart="518.99" departLane="best" from="318298137#6" to="-778590557#2"/>
    <trip id="bus76" type="bus_bus" depart="525.91" departLane="best" from="679893524#3" to="133270574#6"/>
    <trip id="bus77" type="bus_bus" depart="532.83" departLane="best" from="35844487#3" to="-35843204#4"/>
    <trip id="bus78" type="bus_bus" depart="539.75" departLane="best" from="756582327#2" to="-318298137#3"/>
    <trip id="bus79" type="bus_bus" depart="546.67" departLane="best" from="48049173#6" to="-35846309#1"/>
    <trip id="bus80" type="bus_bus" depart="553.59" departLane="best" from="35843204#2" to="125578297#1"/>
    <trip id="bus81" type="bus_bus" depart="560.51" departLane="best" from="679893524#1" to="-35845414#8"/>
    <trip id="bus83" type="bus_bus" depart="574.35" departLane="best" from="984872684" to="-35846309#1"/>
    <trip id="bus85" type="bus_bus" depart="588.19" departLane="best" from="-995279134" to="-35845986#21"/>
    <trip id="bus87" type="bus_bus" depart="602.03" departLane="best" from="133270585#8" to="-35844298#2"/>
    <trip id="bus88" type="bus_bus" depart="608.95" departLane="best" from="48049173#3" to="201662464#3"/>
    <trip id="bus89" type="bus_bus" depart="615.87" departLane="best" from="-369817110#6" to="756582327#4"/>
    <trip id="bus90" type="bus_bus" depart="622.79" departLane="best" from="-35844537#0" to="35845312#7"/>
    <trip id="bus91" type="bus_bus" depart="629.71" departLane="best" departSpeed="max" from="125586592#0" to="740661097#1"/>
    <trip id="bus92" type="bus_bus" depart="636.63" departLane="best" departSpeed="max" from="591307587#0" to="-984872684"/>
    <trip id="bus94" type="bus_bus" depart="650.47" departLane="best" from="-35843019#4" to="35845967#0"/>
    <trip id="bus95" type="bus_bus" depart="657.39" departLane="best" from="-302363668#7" to="35844535#1"/>
    <trip id="bus96" type="bus_bus" depart="664.31" departLane="best" from="154493699#1" to="35846218#6"/>
    <trip id="bus97" type="bus_bus" depart="671.23" departLane="best" from="-310909556#0" to="35844242#1"/>
    <trip id="bus99" type="bus_bus" depart="685.07" departLane="best" from="-35844324#0" to="-327947729#7"/>
    <trip id="bus100" type="bus_bus" depart="691.99" departLane="best" from="-369817110#3" to="35844535#0"/>
    <trip id="bus102" type="bus_bus" depart="705.83" departLane="best" from="591307587#3" to="327947729#8"/>
    <trip id="bus103" type="bus_bus" depart="712.75" departLane="best" from="-35844329#1" to="-540537300#5"/>
    <trip id="bus104" type="bus_bus" depart="719.67" departLane="best" from="35843193#6" to="-35845973#0"/>
    <trip id="bus105" type="bus_bus" depart="726.59" departLane="best" departSpeed="max" from="-35845495#3" to="35844549#0"/>
    <trip id="bus106" type="bus_bus" depart="733.51" departLane="best" from="302363551#5" to="-128565511"/>
    <trip id="bus107" type="bus_bus" depart="740.43" departLane="best" from="995279132" to="987593666#0"/>
    <trip id="bus108" type="bus_bus" depart="747.35" departLane="best" from="-302363668#0" to="-35844298#1"/>
    <trip id="bus109" type="bus_bus" depart="754.27" departLane="best" from="-35844537#0" to="42941553#17"/>
    <trip id="bus112" type="bus_bus" depart="775.03" departLane="best" from="35845986#4" to="-35844293#0"/>
    <trip id="bus113" type="bus_bus" depart="781.95" departLane="best" from="-328021283#1" to="778590555#2"/>
    <trip id="bus114" type="bus_bus" depart="788.87" departLane="best" from="-35843043#4" to="-125586592#0"/>
    <trip id="bus115" type="bus_bus" depart="795.79" departLane="best" from="35845973#5" to="35845967#4"/>
    <trip id="bus117" type="bus_bus" depart="809.62" departLane="best" from="333378696#1" to="-327947729#1"/>
    <trip id="bus119" type="bus_bus" depart="823.46" departLane="best" from="-35844834#1" to="332458753"/>
    <trip id="bus120" type="bus_bus" depart="830.38" departLane="best" from="35844324#1" to="-35844286#4"/>
    <trip id="bus121" type="bus_bus" depart="837.30" departLane="best" from="-349757784#0" to="35844834#5"/>
    <trip id="bus122" type="bus_bus" depart="844.22" departLane="best" departSpeed="max" from="134120210" to="371237121#3"/>
    <trip id="bus123" type="bus_bus" depart="851.14" departLane="best" from="679893524#3" to="-35845414#6"/>
    <trip id="bus125" type="bus_bus" depart="864.98" departLane="best" from="-349757784#3" to="35844834#2"/>
    <trip id="bus126" type="bus_bus" depart="871.90" departLane="best" from="679893524#7" to="-125586592#0"/>
    <trip id="bus127" type="bus_bus" depart="878.82" departLane="best" from="-302363668#2" to="362197199#1"/>
    <trip id="bus129" type="bus_bus" depart="892.66" departLane="best" from="35845986#5" to="-327947729#7"/>
    <trip id="bus130" type="bus_bus" depart="899.58" departLane="best" from="35845424#6" to="369817110#7"/>
    <trip id="bus131" type="bus_bus" depart="906.50" departLane="best" from="35845424#6" to="35846230#6"/>
    <trip id="bus132" type="bus_bus" depart="913.42" departLane="best" departSpeed="max" from="371237121#0" to="-35844293#2"/>
    <trip id="bus133" type="bus_bus" depart="920.34" departLane="best" from="-35844342#3" to="318298137#8"/>
    <trip id="bus134" type="bus_bus" depart="927.26" departLane="best" from="35845312#7" to="362197200#0"/>
    <trip id="bus135" type="bus_bus" depart="934.18" departLane="best" from="35853671" to="737281059#2"/>
    <trip id="bus137" type="bus_bus" depart="948.02" departLane="best" from="-133270574#11" to="-35844500#0"/>
    <trip id="bus138" type="bus_bus" depart="954.94" departLane="best" from="35845986#13" to="42941553#17"/>
    <trip id="bus139" type="bus_bus" depart="961.86" departLane="best" departSpeed="max" from="35845973#0" to="35844834#9"/>
    <trip id="bus140" type="bus_bus" depart="968.78" departLane="best" from="35845414#7" to="-327212723#1"/>
    <trip id="bus142" type="bus_bus" depart="982.62" departLane="best" from="-35844293#1" to="35845516"/>
    <trip id="bus143" type="bus_bus" depart="989.54" departLane="best" departSpeed="max" from="-126815762#0" to="-35845973#2"/>
    <trip id="bus144" type="bus_bus" depart="996.46" departLane="best" from="35845424#5" to="-35844332#1"/>
    <trip id="bus145" type="bus_bus" depart="1003.38" departLane="best" from="-133270574#10" to="-35844275#3"/>
    <trip id="bus146" type="bus_bus" depart="1010.30" departLane="best" from="35845973#3" to="-35846309#5"/>
    <trip id="bus147" type="bus_bus" depart="1017.22" departLane="best" from="679893524#2" to="-35845424#1"/>
    <trip id="bus148" type="bus_bus" depart="1024.14" departLane="best" from="35843019#2" to="-573176749#3"/>
    <trip id="bus149" type="bus_bus" depart="1031.06" departLane="best" from="740661097#3" to="311690780#3"/>
    <trip id="bus150" type="bus_bus" depart="1037.98" departLane="best" from="525700449" to="327947729#1"/>
    <trip id="bus151" type="bus_bus" depart="1044.90" departLane="best" from="591307587#2" to="-35844834#7"/>
    <trip id="bus152" type="bus_bus" depart="1051.82" departLane="best" from="-327947729#3" to="-984872684"/>
    <trip id="bus153" type="bus_bus" depart="1058.74" departLane="best" from="35844487#2" to="-35845986#12"/>
    <trip id="bus154" type="bus_bus" depart="1065.66" departLane="best" from="327947729#3" to="299080520#2"/>
    <trip id="bus155" type="bus_bus" depart="1072.58" departLane="best" from="-369817111#0" to="-327947724"/>
    <trip id="bus156" type="bus_bus" depart="1079.50" departLane="best" from="35844512#0" to="-35844298#2"/>
    <trip id="bus158" type="bus_bus" depart="1093.34" departLane="best" from="-302363668#2" to="35844329#0"/>
    <trip id="bus159" type="bus_bus" depart="1100.26" departLane="best" from="-35844519#4" to="-35843204#1"/>
    <trip id="bus162" type="bus_bus" depart="1121.02" departLane="best" departSpeed="max" from="-35845495#3" to="35846218#1"/>
    <trip id="bus163" type="bus_bus" depart="1127.94" departLane="best" from="35844329#0" to="-35845973#0"/>
    <trip id="bus164" type="bus_bus" depart="1134.86" departLane="best" from="35845424#8" to="-591307587#1"/>
    <trip id="bus165" type="bus_bus" depart="1141.78" departLane="best" from="48049173#6" to="-35845518"/>
    <trip id="bus166" type="bus_bus" depart="1148.70" departLane="best" from="-332458752#4" to="694707003#0"/>
    <trip id="bus168" type="bus_bus" depart="1162.54" departLane="best" from="371237121#5" to="-345550635#0"/>
    <trip id="bus171" type="bus_bus" depart="1183.30" departLane="best" from="-694707003#2" to="327947729#3"/>
    <trip id="bus173" type="bus_bus" depart="1197.14" departLane="best" from="-778590557#5" to="-35844298#2"/>
    <trip id="bus174" type="bus_bus" depart="1204.06" departLane="best" from="133270574#11" to="369817110#8"/>
    <trip id="bus176" type="bus_bus" depart="1217.90" departLane="best" from="-311740851#0" to="-302363551#2"/>
    <trip id="bus177" type="bus_bus" depart="1224.82" departLane="best" from="-347948450#3" to="-35846309#0"/>
    <trip id="bus178" type="bus_bus" depart="1231.74" departLane="best" departSpeed="max" from="35845986#0" to="35844549#0"/>
    <trip id="bus179" type="bus_bus" depart="1238.66" departLane="best" from="35844242#1" to="-133270574#8"/>
    <trip id="bus180" type="bus_bus" depart="1245.58" departLane="best" from="-35844332#1" to="-133270585#5"/>
    <trip id="bus181" type="bus_bus" depart="1252.50" departLane="best" from="35846218#8" to="-302363551#0"/>
    <trip id="bus182" type="bus_bus" depart="1259.42" departLane="best" from="540537300#6" to="349757784#6"/>
    <trip id="bus184" type="bus_bus" depart="1273.26" departLane="best" from="134120212" to="35844519#2"/>
    <trip id="bus187" type="bus_bus" depart="1294.02" departLane="best" from="-327947729#1" to="-740661097#4"/>
    <trip id="bus189" type="bus_bus" depart="1307.86" departLane="best" from="-201662464#4" to="154493699#6"/>
    <trip id="bus190" type="bus_bus" depart="1314.78" departLane="best" from="-35844342#3" to="35846218#1"/>
    <trip id="bus191" type="bus_bus" depart="1321.70" departLane="best" departSpeed="max" from="125586592#0" to="35845424#13"/>
    <trip id="bus196" type="bus_bus" depart="1356.29" departLane="best" departSpeed="max" from="371237121#0" to="35844519#0"/>
    <trip id="bus197" type="bus_bus" depart="1363.21" departLane="best" from="-133270574#2" to="-35844834#14"/>
    <trip id="bus198" type="bus_bus" depart="1370.13" departLane="best" from="-35844342#1" to="35843020#0"/>
    <trip id="bus201" type="bus_bus" depart="1390.89" departLane="best" from="-302363668#5" to="-35845424#5"/>
    <trip id="bus202" type="bus_bus" depart="1397.81" departLane="best" from="-35844549#4" to="-35845986#18"/>
    <trip id="bus203" type="bus_bus" depart="1404.73" departLane="best" from="-302363668#4" to="-347948450#1"/>
    <trip id="bus204" type="bus_bus" depart="1411.65" departLane="best" from="35844293#3" to="-219362284"/>
    <trip id="bus205" type="bus_bus" depart="1418.57" departLane="best" from="540537300#11" to="311740851#1"/>
    <trip id="bus206" type="bus_bus" depart="1425.49" departLane="best" from="540537300#8" to="-35844291#3"/>
    <trip id="bus207" type="bus_bus" depart="1432.41" departLane="best" from="591307587#4" to="371237121#10"/>
    <trip id="bus208" type="bus_bus" depart="1439.33" departLane="best" from="-317264298#4" to="35844286#1"/>
    <trip id="bus209" type="bus_bus" depart="1446.25" departLane="best" departSpeed="max" from="35846309#0" to="35844834#5"/>
    <trip id="bus210" type="bus_bus" depart="1453.17" departLane="best" departSpeed="max" from="-369817110#8" to="-125586592#0"/>
    <trip id="bus211" type="bus_bus" depart="1460.09" departLane="best" from="-35846230#6" to="35844549#2"/>
    <trip id="bus212" type="bus_bus" depart="1467.01" departLane="best" from="-35846230#3" to="-540537300#13"/>
    <trip id="bus213" type="bus_bus" depart="1473.93" departLane="best" from="591307587#3" to="35844535#0"/>
    <trip id="bus214" type="bus_bus" depart="1480.85" departLane="best" from="-310909556#4" to="332458752#5"/>
    <trip id="bus215" type="bus_bus" depart="1487.77" departLane="best" from="-35844291#3" to="-35844319#0"/>
    <trip id="bus216" type="bus_bus" depart="1494.69" departLane="best" from="-778590555#3" to="133270585#15"/>
    <trip id="bus219" type="bus_bus" depart="1515.45" departLane="best" from="128565511" to="332458752#0"/>
    <trip id="bus220" type="bus_bus" depart="1522.37" departLane="best" from="-332458753" to="-133270585#12"/>
    <trip id="bus221" type="bus_bus" depart="1529.29" departLane="best" from="-133270574#6" to="35843043#1"/>
    <trip id="bus222" type="bus_bus" depart="1536.21" departLane="best" from="-345727211#0" to="133270574#0"/>
    <trip id="bus223" type="bus_bus" depart="1543.13" departLane="best" from="154493699#6" to="-48049173#0"/>
    <trip id="bus224" type="bus_bus" depart="1550.05" departLane="best" from="-35844275#8" to="-35845986#7"/>
    <trip id="bus225" type="bus_bus" depart="1556.97" departLane="best" from="-35844834#10" to="-35845986#17"/>
    <trip id="bus226" type="bus_bus" depart="1563.89" departLane="best" from="-35844494#1" to="302363668#5"/>
    <trip id="bus227" type="bus_bus" depart="1570.81" departLane="best" from="-133057881#0" to="311690780#7"/>
    <trip id="bus228" type="bus_bus" depart="1577.73" departLane="best" from="-35843043#1" to="35844549#3"/>
    <trip id="bus229" type="bus_bus" depart="1584.65" departLane="best" from="540537300#7" to="-35844286#0"/>
    <trip id="bus230" type="bus_bus" depart="1591.57" departLane="best" from="-133057881#2" to="-35843020#0"/>
    <trip id="bus231" type="bus_bus" depart="1598.49" departLane="best" from="35844291#0" to="35844834#7"/>
    <trip id="bus233" type="bus_bus" depart="1612.33" departLane="best" from="-35844549#1" to="-327947729#0"/>
    <trip id="bus234" type="bus_bus" depart="1619.25" departLane="best" departSpeed="max" from="35845986#0" to="679893524#0"/>
    <trip id="bus235" type="bus_bus" depart="1626.17" departLane="best" from="-327947729#3" to="-133270574#9"/>
    <trip id="bus237" type="bus_bus" depart="1640.01" departLane="best" departSpeed="max" from="591307587#0" to="-540537300#6"/>
    <trip id="bus238" type="bus_bus" depart="1646.93" departLane="best" from="35844319#1" to="-302363551#4"/>
    <trip id="bus239" type="bus_bus" depart="1653.85" departLane="best" from="35844275#5" to="349757784#6"/>
    <trip id="bus241" type="bus_bus" depart="1667.69" departLane="best" departSpeed="max" from="-328640015#2" to="756582327#1"/>
    <trip id="bus243" type="bus_bus" depart="1681.53" departLane="best" from="679893524#8" to="-371237121#4"/>
    <trip id="bus244" type="bus_bus" depart="1688.45" departLane="best" from="154493699#4" to="35846309#3"/>
    <trip id="bus245" type="bus_bus" depart="1695.37" departLane="best" from="35846218#8" to="-35845973#1"/>
    <trip id="bus246" type="bus_bus" depart="1702.29" departLane="best" from="-327947729#0" to="-540537300#9"/>
    <trip id="bus247" type="bus_bus" depart="1709.21" departLane="best" from="35844298#0" to="-987593666#0"/>
    <trip id="bus248" type="bus_bus" depart="1716.13" departLane="best" from="-35844549#2" to="35845495#0"/>
    <trip id="bus249" type="bus_bus" depart="1723.05" departLane="best" from="-302363668#2" to="-145659797#1"/>
    <trip id="bus250" type="bus_bus" depart="1729.97" departLane="best" from="-778590555#2" to="35844342#3"/>
    <trip id="bus251" type="bus_bus" depart="1736.89" departLane="best" from="-35844549#1" to="35846218#5"/>
    <trip id="bus252" type="bus_bus" depart="1743.81" departLane="best" from="-35845986#20" to="-310909556#3"/>
    <trip id="bus253" type="bus_bus" depart="1750.73" departLane="best" from="364719378#0" to="35844519#2"/>
    <trip id="bus254" type="bus_bus" depart="1757.65" departLane="best" from="-126815762#1" to="337515390#5"/>
    <trip id="bus255" type="bus_bus" depart="1764.57" departLane="best" from="-369817110#6" to="-133270585#16"/>
    <trip id="bus256" type="bus_bus" depart="1771.49" departLane="best" from="-35846230#0" to="-35843204#3"/>
    <trip id="bus257" type="bus_bus" depart="1778.41" departLane="best" from="-35844275#9" to="-35845424#1"/>
    <trip id="bus259" type="bus_bus" depart="1792.25" departLane="best" from="35844291#2" to="-35845414#5"/>
    <trip id="bus260" type="bus_bus" depart="1799.17" departLane="best" departSpeed="max" from="-125578297#6" to="-145659797#1"/>
    <trip id="bus261" type="bus_bus" depart="1806.09" departLane="best" departSpeed="max" from="134120210" to="35844834#11"/>
    <trip id="bus263" type="bus_bus" depart="1819.93" departLane="best" departSpeed="max" from="134120210" to="35845414#4"/>
    <trip id="bus264" type="bus_bus" depart="1826.85" departLane="best" from="317264298#0" to="-133270585#16"/>
    <trip id="bus265" type="bus_bus" depart="1833.77" departLane="best" from="-299080520#4" to="-778590555#0"/>
    <trip id="bus267" type="bus_bus" depart="1847.61" departLane="best" from="-35844494#0" to="-327947729#8"/>
    <trip id="bus268" type="bus_bus" depart="1854.53" departLane="best" from="-35843378" to="-327947729#6"/>
    <trip id="bus269" type="bus_bus" depart="1861.45" departLane="best" departSpeed="max" from="-35843197#2" to="-35844302#1"/>
    <trip id="bus270" type="bus_bus" depart="1868.36" departLane="best" from="133270585#4" to="35844329#2"/>
    <trip id="bus271" type="bus_bus" depart="1875.28" departLane="best" from="737281059#2" to="302363668#7"/>
    <trip id="bus272" type="bus_bus" depart="1882.20" departLane="best" from="-35844834#7" to="-318298137#5"/>
    <trip id="bus274" type="bus_bus" depart="1896.04" departLane="best" from="35843193#4" to="-128565511"/>
    <trip id="bus275" type="bus_bus" depart="1902.96" departLane="best" from="302363551#4" to="35845414#3"/>
    <trip id="bus280" type="bus_bus" depart="1937.56" departLane="best" departSpeed="max" from="-35843197#2" to="-154493699#9"/>
    <trip id="bus281" type="bus_bus" depart="1944.48" departLane="best" from="540537300#1" to="133869628"/>
    <trip id="bus282" type="bus_bus" depart="1951.40" departLane="best" from="35845986#10" to="-573176749#3"/>
    <trip id="bus283" type="bus_bus" depart="1958.32" departLane="best" from="-302363668#1" to="349757784#6"/>
    <trip id="bus284" type="bus_bus" depart="1965.24" departLane="best" from="154927649#1" to="-35843019#3"/>
    <trip id="bus285" type="bus_bus" depart="1972.16" departLane="best" from="312891127#10" to="-35845973#1"/>
    <trip id="bus286" type="bus_bus" depart="1979.08" departLane="best" from="778590557#5" to="327947729#5"/>
    <trip id="bus288" type="bus_bus" depart="1992.92" departLane="best" from="35845424#11" to="-35844329#1"/>
    <trip id="bus289" type="bus_bus" depart="1999.84" departLane="best" departSpeed="max" from="219362284" to="125578297#6"/>
    <trip id="bus290" type="bus_bus" depart="2006.76" departLane="best" from="-778590557#5" to="35846230#6"/>
    <trip id="bus291" type="bus_bus" depart="2013.68" departLane="best" from="778590555#5" to="-35845973#2"/>
    <trip id="bus292" type="bus_bus" depart="2020.60" departLane="best" from="-332458752#4" to="337515390#4"/>
    <trip id="bus293" type="bus_bus" depart="2027.52" departLane="best" from="-35844519#1" to="-48049173#9"/>
    <trip id="bus294" type="bus_bus" depart="2034.44" departLane="best" from="-35844275#4" to="-35844293#3"/>
    <trip id="bus298" type="bus_bus" depart="2062.12" departLane="best" from="35844291#4" to="125578297#6"/>
    <trip id="bus299" type="bus_bus" depart="2069.04" departLane="best" from="-35844275#2" to="42941553#10"/>
    <trip id="bus300" type="bus_bus" depart="2075.96" departLane="best" from="35845414#8" to="349757784#4"/>
    <trip id="bus303" type="bus_bus" depart="2096.72" departLane="best" from="35843020#2" to="371237121#6"/>
    <trip id="bus304" type="bus_bus" depart="2103.64" departLane="best" from="35845986#16" to="-299080520#3"/>
    <trip id="bus307" type="bus_bus" depart="2124.40" departLane="best" from="35844275#3" to="35844291#0"/>
    <trip id="bus308" type="bus_bus" depart="2131.32" departLane="best" from="540537300#11" to="266073637#0"/>
    <trip id="bus309" type="bus_bus" depart="2138.24" departLane="best" from="134120211#1" to="302363668#3"/>
    <trip id="bus310" type="bus_bus" depart="2145.16" departLane="best" from="134120211#1" to="-778590557#3"/>
    <trip id="bus311" type="bus_bus" depart="2152.08" departLane="best" departSpeed="max" from="-35845516" to="35844549#0"/>
    <trip id="bus312" type="bus_bus" depart="2159.00" departLane="best" from="318298137#0" to="-591307587#1"/>
    <trip id="bus313" type="bus_bus" depart="2165.92" departLane="best" from="540537300#8" to="-995279134"/>
    <trip id="bus315" type="bus_bus" depart="2179.76" departLane="best" from="134120211#1" to="35844834#1"/>
    <trip id="bus317" type="bus_bus" depart="2193.60" departLane="best" departSpeed="max" from="42941552" to="-35843204#2"/>
    <trip id="bus318" type="bus_bus" depart="2200.52" departLane="best" from="318298137#0" to="35843019#4"/>
    <trip id="bus319" type="bus_bus" depart="2207.44" departLane="best" departSpeed="max" from="134120210" to="314608192#1"/>
    <trip id="bus322" type="bus_bus" depart="2228.20" departLane="best" departSpeed="max" from="125586592#0" to="-35845986#13"/>
    <trip id="bus323" type="bus_bus" depart="2235.12" departLane="best" from="-35845967#0" to="679893524#6"/>