<?xml version="1.0" encoding="UTF-8"?>

<!-- generated on 2023-07-13 18:17:49.026966 by osmWebWizard.py v1_18_0+0000-03ecfdea036
<configuration>
    <net-file value="C:\Users\Rustam Mattiev\2023-07-13-18-17-30\osm.net.xml.gz"/>
    <output-trip-file value="C:\Users\Rustam Mattiev\2023-07-13-18-17-30\osm.pedestrian.trips.xml"/>
    <route-file value="C:\Users\Rustam Mattiev\2023-07-13-18-17-30\osm.pedestrian.rou.xml"/>
    <pedestrians value="True"/>
    <prefix value="ped"/>
    <vehicle-class value="pedestrian"/>
    <fringe-factor value="1"/>
    <max-distance value="2000.0"/>
    <insertion-density value="10.0"/>
</configuration>
-->

<!-- generated on 2023-07-13 18:17:46 by Eclipse SUMO duarouter Version 1.18.0
<configuration xmlns:xsi="http://www.w3.org/2001/XMLSchema-instance" xsi:noNamespaceSchemaLocation="http://sumo.dlr.de/xsd/duarouterConfiguration.xsd">

    <input>
        <net-file value="C:\Users\Rustam Mattiev\2023-07-13-18-17-30\osm.net.xml.gz"/>
        <route-files value="C:\Users\Rustam Mattiev\2023-07-13-18-17-30\osm.pedestrian.trips.xml"/>
    </input>

    <output>
        <output-file value="C:\Users\Rustam Mattiev\2023-07-13-18-17-30\osm.pedestrian.rou.xml"/>
        <alternatives-output value="NUL"/>
    </output>

    <time>
        <begin value="0.0"/>
        <end value="3600.0"/>
    </time>

    <report>
        <no-warnings value="true"/>
        <ignore-errors value="true"/>
        <no-step-log value="true"/>
    </report>

</configuration>
-->

<routes xmlns:xsi="http://www.w3.org/2001/XMLSchema-instance" xsi:noNamespaceSchemaLocation="http://sumo.dlr.de/xsd/routes_file.xsd">
    <vType id="ped_pedestrian" vClass="pedestrian"/>
    <person id="ped1" type="ped_pedestrian" depart="1.69">
        <walk edges="-581254950#0 832196902 -581254944#1 581254952 -35843200#1 -832196903 679567180#0 740682984#1 679567182#1 679567182#0 737840382#1 737840382#2 737840382#3 314367715#0 314367715#1 314367715#2 841514987#1 841514985#1 841514985#2 841514980 679567177#1 841514983 841515011#1 841515007#1 679567174#2 679567174#1 679567174#0 679567173#4 -40699405#5"/>
    </person>
    <person id="ped2" type="ped_pedestrian" depart="3.39">
        <walk edges="737278734 -35844477#13 -35849768#8 35849768#7 -35849768#6 -35849768#5 35849768#4 -35849768#3 -35849768#2 737840381 737840382#1 737840383#1 737840383#0 310934520 310934516 310934518#2 310934518#1 310935441 310935440 310935442 680134289#1 -201660739#5"/>
    </person>
    <person id="ped3" type="ped_pedestrian" depart="5.08">
        <walk edges="168978945#1 168986488#1 679567168 168977074#0 168977077#4 168977077#3 168977077#2 168977076#3 168977076#2 168977076#1 168977076#0 825193295#1 739565331#4 739565331#3 739565331#2 739565331#1 739565331#0 178621835#2 178621835#1 178621835#0 841515007#1 841515003#1 416593356#2 -158528292#1"/>
    </person>
    <person id="ped6" type="ped_pedestrian" depart="10.17">
        <walk edges="369844596#0 311242056#7 311242056#6 311242056#4 311242056#3 311242056#2 344740240#0 344740240#1 344740240#2 306654057 -312183578#0 -312183578#2 -312183578#3 -312183578#4 371231408#2 371231408#0 -361105771 342456772#4 342456772#5 342456772#6 342456772#7 326891474#0"/>
    </person>
    <person id="ped8" type="ped_pedestrian" depart="13.56">
        <walk edges="679900858 679900853#2 679900854 -679900855 -589282615#1 -589282617 -153786637#2 -153786637#1 679648101#0 679648104#0 679648104#1 679648103#1 680178944#0 364719376#9 364719376#10 364719376#11 -364719376#12 178621272#0 -178619382#1 -168985931#1 -168985931#0 -35843040#9 -35843040#8 -35843040#7 -35843040#6 -35843040#4 -35843040#3 -35843040#2 -35843040#1 679567157#1 679567157#2 679567157#3 839282225#1 -35845335#0 -35845335#1 484776436 1131160343 -1131160340#2"/>
    </person>
    <person id="ped9" type="ped_pedestrian" depart="15.25">
        <walk edges="679893543#1 679893547 181981606#1 -679900861 679900858 679900853#2 679900854 -679900855 -589282615#1 -589282617 -153786637#2 -153786637#1 679648101#0 679648104#0 679648104#1 679648103#1 680178944#0 364719376#9 364719376#10 364719376#11 -364719376#12 178621272#0 -178619382#1 -168985931#1 -168985931#0 -35843040#9 -35843040#8 -35843040#7 427268437 -168986695 -168978943#0 -168978947#6 -168978947#5 -168978947#4 -168978947#3 -168978947#2 679567170 679567164#0 825193310#1 825193311#1 825193294#3 825193294#2 73338977#0 739565331#4 428041424#4"/>
    </person>
    <person id="ped10" type="ped_pedestrian" depart="16.95">
        <walk edges="-737840380 737840380 -35849757#1 737261012 737840382#2 737840382#1 737840383#1 737840383#0 310934520 310934516 310934518#2 310934518#1 310934518#0 310934517 311738812#3 311738812#2 310934519 -201663526 -201663516#0 -35844367#1 -35844367#0 201660739#13 -35844355#0 -35844355#1 35844355#2 -35844355#3 -35844355#4 -35844355#5 -35844357#3"/>
    </person>
    <person id="ped11" type="ped_pedestrian" depart="18.64">
        <walk edges="812837542 -812837537#10 812837537#11 -812837536#5 -168985193#2 168985194#6 -168985194#5 -168985195#0 -168985195#1 -168978945#2 168978946#3 812837569#1 812837569#0 -168978946#0 -168978943#3 -168978947#3 -168978947#2 679567170 679567164#0 825193310#1 825193311#1 825193294#3 825193294#2 73338977#0 739565331#4 739565331#3 739565331#2 739565331#1 739565331#0 178621835#2 -767895310#1 751578589 -840886400#2 -178621836#0 -178621836#1 -178621840#0 679567174#0 840886034#1 416593376#5 361783399#0 361783398#3 361783398#2 361783398#1 178943238#7 178943241#0 178943241#1 98590464#1 98590464#2 -737249492#1"/>
    </person>
    <person id="ped12" type="ped_pedestrian" depart="20.33">
        <walk edges="-201662497#2 -201662497#0 201660739#2 -201660739#3 -201660739#4 201660739#5 -201660739#6 201660739#7 -201660739#8 -201660739#9 -201660739#10 201784226#0 -201784229#0 -201784225#0 -201784225#1 -201784225#2 -201782944#4"/>
    </person>
    <person id="ped13" type="ped_pedestrian" depart="22.03">
        <walk edges="73338977#7 73338977#6 73338977#5 73338977#4 73338977#3 73338977#2 825193297#1 679567137 679567175#15 736525488#3 738472062#0 738472062#1 738472062#2 738472062#3 735271673#1 735271673#0 -174418562#2 737239555#1 737239556#0 737239556#1 737239556#2 -35844507#8 -35844507#9 -35844482#7 -35844482#9 735271668#1 735271668#0 594074463#4 594074463#3 594074463#2 594074463#1 594074463#0 837859842 837859840#3 837859840#2 735271666 -737261017 -35849839#2 -35849839#1 314367715#0 737840382#3 737840382#2 737840382#1 679567182#0 679567182#1 740682984#1 679567180#0 -832196903 -35843200#1 581254952 -581254944#1 832196902 581254950#0 -1006110295#2 -35844217#0 1006110292#0 1006110293 -1006110294 386292773#0 35844890#0"/>
    </person>
    <person id="ped15" type="ped_pedestrian" depart="25.42">
        <walk edges="314367715#1 -35849839#1 -35849839#2 -737261017 735271666 837859840#2 837859840#3 837859842 594074463#0 594074463#1 594074463#2 594074463#3 594074463#4 735271668#0 735271668#1 -35844482#9 -35844482#7 -35844507#9 -35844507#8 737239556#2 737239556#1 737239556#0 737239555#1 -174418562#2 735271673#0 735271673#1 738472062#3 738472062#2 738472062#1 738472062#0 736525488#3 679567175#15 825193304#1 428041424#4 739565331#4 73338977#0 825193294#2 825193294#3 825193311#1 825193310#1 679567163#1 133270576 825193313#1"/>
    </person>
    <person id="ped17" type="ped_pedestrian" depart="28.81">
        <walk edges="680166611#1 -680166600#1 -680166631#0 680166652#0 680166652#1 -680166656#0 -178621274#0 -35843038#15 812837547#1 812837547#0 -812837537#5 812837537#6 -812837537#7 812837537#8 812837550 -35843038#11 -35843038#10 -168985193#2 168985194#6 -168985194#5 -168985195#0 -168985195#1 -168978945#2 168978946#3 812837569#1 812837569#0 -168978946#0 -168978943#3 -168978947#3 -168978947#2 679567170 679567164#0 825193310#1 825193311#1 825193294#3 825193294#2 73338977#0 739565331#4 428041424#4 825193304#1 825193301#1 825193301#2 825193301#3 825193301#4 825193301#5 737281055#1 737281056#0 737281056#1 737281056#2 737281056#3 737281056#4 737281056#5 484776445#0 484776445#1 484776445#2 484776445#3 810457990#1 35849776#0"/>
    </person>
    <person id="ped18" type="ped_pedestrian" depart="30.50">
        <walk edges="735267036#1 -735267036#0 -735236445#2 -35844482#9 -35844482#7 -35844507#9 -35844507#8 737239556#2 737239556#1 737239556#0 737239555#1 -174418562#2 735271673#0 735271673#1 738472062#3 738472062#2 738472062#1 738472062#0 736525488#3 679567175#15 825193304#1 428041424#4 739565331#4 73338977#0 825193294#2 825193294#3 825193311#1 825193310#1 679567164#0 679567170 -168978947#2 -168978947#3 -168978947#4 -168978947#5 -168978947#6 -168978943#0 -168986695 427268437 -35843040#7 -35843040#8 -35843040#9 35843040#10"/>
    </person>
    <person id="ped19" type="ped_pedestrian" depart="32.20">
        <walk edges="483526601#2 -483526601#3 -35844482#7 -35844507#9 -35844507#8 737239556#2 737239556#1 737239556#0 737239555#1 -174418562#2 735271673#0 735271673#1 738472062#3 738472062#2 738472062#1 738472062#0 736525488#3 679567175#15 825193304#1 428041424#4 739565331#4 73338977#0 825193294#2 825193294#3 825193311#1 825193310#1 679567164#0 679567170 -168978947#2 -168978947#3 -168978947#4 -168978947#5 -168978947#6 -168978947#7 -168978947#8 168978947#9 -168985783 -168985777#0"/>
    </person>
    <person id="ped21" type="ped_pedestrian" depart="35.59">
        <walk edges="-181981605#0 -181981605#1 679648104#1 679648103#1 680178944#0 364719376#9 364719376#10 364719376#11 -364719376#12 178621272#0 -178619382#1 -168985931#1 -168985931#0 -35843040#9 -35843040#8 -35843040#7 427268437 -168986695 -168978943#0 -168978947#6 -168978947#5 -168978947#4 -168978947#3 -168978947#2 679567170 679567164#0 825193310#1 825193311#1 825193294#3 825193294#2 73338977#0 739565331#4 739565331#3 739565331#2 739565331#1 739565331#0 178621835#2 -767895310#1 751578589 -840886400#2 -178621836#0 -178621836#1 -178621840#0 679567174#0 840886034#1 416593376#5 416593376#4 416593376#3 416593358#1 778590556#0 778590556#1 -416593397#0"/>
    </person>
    <person id="ped22" type="ped_pedestrian" depart="37.28">
        <walk edges="-201784232#2 -201782944#4 -201784225#2 -201784225#1 -201784225#0 -201784229#0 201784226#0 -201660739#10 -201660739#9 -201660739#8 201660739#7 -201660739#6 201660739#5 -201660739#4 -201660739#3 680134288 -737868489#0 -737868489#1 -737868489#2 -737868489#3 -737868489#4 -737868489#5 737868489#6 -156581274#4 -581522783 -581522782#1 -581522785"/>
    </person>
    <person id="ped23" type="ped_pedestrian" depart="38.98">
        <walk edges="361783398#0 361783398#1 361783398#2 361783398#3 361783399#0 416593376#5 840886034#1 679567174#0 -178621840#0 -178621836#1 -178621836#0 -840886400#2 751578589 -767895310#1 178621835#2 739565331#0 739565331#1 739565331#2 739565331#3 739565331#4 825193295#1 168977076#0 168977076#1 168977076#2 168977076#3 168977077#2 168977077#3 168977077#4 168977074#0 -186591241#0 -168985196 -168985194#2 -168985194#1 -427268440#1 -736522084 -679555217#3 -679555217#2 679555217#1 679555217#0 812837577#3 812837576#2 812837576#1 -812837573#0"/>
    </person>
    <person id="ped25" type="ped_pedestrian" depart="42.36">
        <walk edges="-538881646#1 679893528#0 35843175#1 -134495774#4 -134495774#3 -134495774#2 -134495774#1 679893527#3 -153786637#3 -153786637#2 -153786637#1 679648101#0 679648104#0 679648104#1 679648103#1 680178944#0 364719376#9 364719376#10 364719376#11 -364719376#12 178621272#0 -178619382#1 -168985931#1 -168985931#0 -35843040#9 -35843040#8 -35843040#7 427268437 -168986695 -168978943#0 -168978947#6 -168978947#5 -168978947#4 -168978947#3 -168978947#2 679567170 679567164#0 825193310#1 825193311#1 825193294#3 825193294#2 73338977#0 739565331#4 428041424#4 825193304#1 679567175#15 736525488#3 738472062#0 738472062#1 738472062#2 738472062#3 735271673#1 735271673#0 -174418562#2 737239555#1 737239556#0 737239556#1 737239556#2 -35844507#8 -35844507#9 -35844482#7 -756011448#0 35849855#1 764466908"/>
    </person>
    <person id="ped30" type="ped_pedestrian" depart="50.84">
        <walk edges="-416593377#0 -416593377#1 -416593385#1 98590456#5 98590456#4 416593376#0 416593376#1 416593376#2 416593376#3 416593376#4 416593376#5 840886034#1 679567174#0 679567174#1 679567174#2 841515007#1 841515011#1 841514983 679567177#1 -35849881#0 679567179 740682982#3 740682982#2 -158528318#0"/>
    </person>
    <person id="ped31" type="ped_pedestrian" depart="52.53">
        <walk edges="-680166652#0 680166652#1 -680166656#0 -178621274#0 -35843038#15 812837547#1 812837547#0 -812837537#5 812837537#6 -812837537#7 812837537#8 812837550 -35843038#11 -35843038#10 -168985193#2 168985194#6 -168985194#5 -168985195#0 -168985195#1 -168978945#2 168978946#3 812837569#1 812837569#0 -168978946#0 -168978943#3 -168978947#3 -168978947#2 679567170 679567164#0 825193310#1 825193311#1 825193294#3 825193294#2 73338977#0 739565331#4 428041424#4 825193304#1 679567175#15 736525488#3 738472062#0 738472062#1 738472062#2 738472062#3 735271673#1 735271673#0 -174418562#2 737239555#1 737239556#0 737239556#1 737239556#2 -35844507#8 -35844507#9 -35844482#7 -35844482#9 735271668#1 735271668#0 594074463#4 594074463#3 594074463#2 594074463#1 594074463#0 837859842 837859840#3 837859840#2 735271666 -737261017 -35849839#2 -35849839#1 314367715#0 737840382#3 737840382#2 737840382#1 679567182#0 679567182#1 740682984#1 679567180#0 -832196903 -35843200#0 -551042553#1 -551042553#0"/>
    </person>
    <person id="ped33" type="ped_pedestrian" depart="55.92">
        <walk edges="736531265#1 -736531265#0 -35849867#1 -35849881#5 -35849881#6 737908312 -35849881#9 -767895312#0 -767895312#1 -767895312#2 679567175#6 679567175#7 679567175#8 679567175#9 679567175#10 679567175#11 679567175#12 679567175#13 679567175#14 679567175#15 825193304#1 428041424#4 739565331#4 73338977#0 825193294#2 825193294#3 825193311#1 825193310#1 679567164#0 679567170 -168978947#2 -168978947#3 -168978947#4 -168978947#5 -168978947#6 -168978943#0 -168986695 427268437 -35843040#7 -35843040#8 -35843040#9 -168985931#0 -168985931#1 -178619382#1 178621272#0 -364719376#12 364719376#11 364719376#10 -680166648"/>
    </person>
    <person id="ped35" type="ped_pedestrian" depart="59.31">
        <walk edges="738472062#2 738472062#1 738472062#0 736525488#3 679567175#15 825193304#1 428041424#4 739565331#4 73338977#0 825193294#2 825193294#3 825193311#1 825193310#1 679567163#1 133270576 679567162 1131160346 -168987960#1 1131160342#1 1131160344 -1131160340#2 1131160343 484776436 -35845335#2 178620634 178620635"/>
    </person>
    <person id="ped38" type="ped_pedestrian" depart="64.39">
        <walk edges="35844355#1 -35844355#0 201660739#13 -35844367#0 -35844367#1 -201663516#0 -201663526 310934519 311738812#2 311738812#3 310934517 310934518#0 310934518#1 310934518#2 310934516 310934520 737840383#0 737840383#1 737840382#1 737840382#2 737840382#3 314367715#0 314367715#1 314367715#2 841514987#1 841514985#1 841514985#2 841514980 679567177#1 841514983 841515011#1 841515007#1 679567174#2 679567174#1 679567174#0 679567173#4 679567173#3 -40699406#1 -40699406#2 -40699406#3 -40699406#4 -840886401#0 -93850990 737840388"/>
    </person>
    <person id="ped39" type="ped_pedestrian" depart="66.09">
        <walk edges="154927644#1 737862469 680134284#1 -680134284#0 -403846305#5"/>
    </person>
    <person id="ped40" type="ped_pedestrian" depart="67.78">
        <walk edges="-201662489#0 371446817 -201660739#9 -201660739#8 201660739#7 -201660739#6 201660739#5 680134289#1 310935442 310935440 310935441 310934518#1 310934518#2 310934516 310934520 737840383#0 737840383#1 737840382#1 737840382#2 737840382#3 314367715#0 -35849839#1 -35849839#2 -737261017 735271666 837859840#2 837859840#3 837859842 594074463#0 594074463#1 594074463#2 594074463#3 594074463#4 735271668#0 735271668#1 -35844482#9 -35844482#7 -35844507#9 -35844507#8 737239556#2 737239556#1 737239556#0 737239555#1 -174418562#2 735271673#0 735271673#1 738472062#3 738472062#2 738472062#1 738472062#0 736525488#3 679567175#15 825193304#1 428041424#4 739565331#4 73338977#0 825193294#2 825193294#3 825193311#1 825193310#1 679567163#1 133270576 -168978944#0 679567157#5 679567157#4 679567157#3 679567157#2 679567157#1 -35843040#1 -168985778#0 -168985778#1"/>
    </person>
    <person id="ped45" type="ped_pedestrian" depart="76.26">
        <walk edges="825193301#1 679567175#15 736525488#3 738472062#0 738472062#1 738472062#2 738472062#3 735271673#1 735271673#0 -174418562#2 737239555#1 737239555#0 -735267030#2 735267030#3"/>
    </person>
    <person id="ped47" type="ped_pedestrian" depart="79.64">
        <walk edges="416593379#0 416593376#1 416593376#2 416593376#3 416593376#4 416593376#5 840886034#1 679567174#0 679567174#1 679567174#2 841515007#1 841515000#1 679567176#0 679567176#1 679567176#2 314371074#1"/>
    </person>
    <person id="ped49" type="ped_pedestrian" depart="83.03">
        <walk edges="178616825#1 825193284#0 825193284#1 825193284#2 -178616827#0 -178616830#0 -178616053#5 -35845340#5 -35845310#0 -35845310#1 780486716 738575615#0 679567156#4 -35845335#0 839282225#1 679567157#3 -35843038#1 -35843038#2 -35843038#3 -35843038#5 -35843038#6 -35843038#7 -35843038#8 -35843038#9 -812837536#5 812837537#11"/>
    </person>
    <person id="ped52" type="ped_pedestrian" depart="88.12">
        <walk edges="738264974#2 -735260460#5 735260460#4 -735260460#1 -35844482#4 735271674#0 735271674#1 735271674#2 735271674#3"/>
    </person>
    <person id="ped53" type="ped_pedestrian" depart="89.81">
        <walk edges="35845340#3 -35845340#1 -35845340#0 -168987968#2 -168987968#3 484776443#8 484776443#7 484776443#6 484776443#5 484776443#4 484776443#3 484776443#2 484776443#1 484776443#0 428041416 -428041419#1 484776447#0 484776447#1 680134266#1 1044684835#1 679567149 109871924#0 -35843017#4 -35843017#3 -108873324#1 -735271670#3 -35849749#4 -35849749#3 -35849749#2 -35849749#1 -35849749#0 737840381 737840382#1 679567182#0 679567182#1 740682984#1 679567180#0 -832196903 -35843200#1 581254952 -581254944#1 832196902 581254950#0 -1006110295#2 -35844217#0 -35844217#2 1006110291 -35844236"/>
    </person>
    <person id="ped55" type="ped_pedestrian" depart="93.20">
        <walk edges="679567175#1 679567175#0 841514983 679567177#1 841514980 841514985#2 841514985#1 841514987#1 314367715#2 314367715#1 314367715#0 737840382#3 737840382#2 737840382#1 737840383#1 737840383#0 679567181 313523468"/>
    </person>
    <person id="ped57" type="ped_pedestrian" depart="96.59">
        <walk edges="736546731#1 736546731#2 736546731#3 736546731#4 428041421#2 736546729 73339159#5 73339159#4 73341753#0 73338977#8 73338977#7 73338977#6 73338977#5 73338977#4 73338977#3 73338977#2 73338977#1 73338977#0 825193294#2 825193294#3 825193311#1 825193310#1 679567164#0 679567170 -168978947#2 -168978947#3 -168978947#4 -168978947#5 -168978947#6 -168978943#0 -168986695 427268437 -35843040#7 -35843040#8 -35843040#9 -168985931#0 -168985931#1 -178619382#1 178621272#0 -364719376#12 364719376#11 364719376#10 680166645#2 -680166645#1 -680166645#0 -680166637#1 680166637#0 680166635"/>
    </person>
    <person id="ped58" type="ped_pedestrian" depart="98.28">
        <walk edges="-680166600#1 -680166631#0 680166652#0 680166652#1 -680166656#0 -178621274#2 178621274#3 -168985998 115148605#1 -115148605#2 -35843040#9 -35843040#8 -35843040#7 -35843040#6 -35843040#4 -35843040#3 -35843040#2 -35843040#1 679567157#1 679567157#2 679567157#3 839282225#1 -35845335#0 -35845335#1 -35845335#2 -35845335#3 -35845340#3 -178616053#0 -178616053#1 -178616056#0 -178616830#2 739753630#1 739753630#0 -178305947#1 -178305947#0 -168987969#0"/>
    </person>
    <person id="ped59" type="ped_pedestrian" depart="99.98">
        <walk edges="736546730#0 736546732#0 736546732#1 736546732#2 736546732#3 736546732#4 736546732#5 736546732#6 428041421#4 428041421#3 736546729 73339159#5 73339159#4 73341753#0 73338977#8 73338977#7 73338977#6 73338977#5 73338977#4 73338977#3 73338977#2 825193297#1 679567137 825193301#1 825193301#2 825193301#3 825193301#4 825193301#5 737281055#1 737281056#0 737281056#1 737281056#2 737281056#3 737281056#4 737281056#5 484776445#0 484776445#1 484776445#2 484776445#3 810457990#1 810457979#1 810457986#2 810457977#0 810457977#1 810457975#1 810457966#0"/>
    </person>
    <person id="ped60" type="ped_pedestrian" depart="101.67">
        <walk edges="-201660739#11 -201660739#10 -201660739#9 -201660739#8 201660739#7 -201660739#6 201660739#5 -201660739#4 -201660739#3 201660739#2 -201662497#0 201662497#1"/>
    </person>
    <person id="ped70" type="ped_pedestrian" depart="118.62">
        <walk edges="-416593377#0 -416593377#1 -416593385#1 98590456#5 98590456#4 416593376#0 416593376#1 416593376#2 416593376#3 416593376#4 416593376#5 840886034#1 679567174#0 679567174#1 679567174#2 841515007#1 841515011#1 841514983 679567177#1 841514980 841514985#2 841514985#1 841514987#1 314367715#2 314367715#1 314367715#0 737840382#3 737840382#2 737840382#1 737840383#1 737840383#0 310934520 310934516 310934518#2 310934518#1 310935441 310935440 310935442 680134289#1 -201660739#4 -201660739#3 680134288 -737868489#0 -737868489#1 -156581271#0 737868492#0 737868491#1"/>
    </person>
    <person id="ped71" type="ped_pedestrian" depart="120.31">
        <walk edges="735267029#0 735267029#1 738511548#0 737239555#0 737239555#1 -174418562#2 735271673#0 735271673#1 738472062#3 738472062#2 738472062#1 738472062#0 736525488#3 679567175#15 825193304#1 428041424#4 739565331#4 73338977#0 825193294#2 825193294#3 825193311#1 825193310#1 679567164#0 679567170 -168978947#2 -168978947#3 -168978947#4 -168978947#5 -168978947#6 -168978943#0 -168986695 427268437 -35843040#7 -35843040#8 -35843040#9 -168985931#0 -168985931#1 -178619382#1"/>
    </person>
    <person id="ped73" type="ped_pedestrian" depart="123.70">
        <walk edges="-374224295#2 -306669891#1 -312183578#0 306654057 344740240#2 344740240#1 344740240#0 311242056#2 311242056#3 311242056#4 -328319778#1 -328319777#0"/>
    </person>
    <person id="ped75" type="ped_pedestrian" depart="127.09">
        <walk edges="179253476 -168986486#1 -168978947#2 679567170 679567164#0 825193310#1 825193311#1 825193294#3 825193294#2 73338977#0 739565331#4 428041424#4 825193304#1 679567175#15 736525488#3 738472062#0 738472062#1 738472062#2 738472062#3 735271673#1 735271673#0 -174418562#2 737239555#1 737239556#0 737239556#1 737239556#2 -35844507#8 -35844507#9 -35844482#7 -35844482#9 735271668#1 735271668#0 594074463#4 594074463#3 594074463#2 594074463#1 594074463#0 837859842 837859840#3 837859840#2 735271666 -737261017 -35849839#2 -35849839#1 314367715#0 737840382#3 737840382#2 737840382#1 679567182#0 679567182#1 740682984#1 679567180#0 -832196903 -35843200#1 581254952 -581254944#1 832196902 581254950#0 -1006110295#2 -35844217#0 -35844217#2 -35844217#3 -495390965 -35844873#4 679575764 679575762 310909986#1 310909986#0 679575761 679575765 679575750#2"/>
    </person>
    <person id="ped76" type="ped_pedestrian" depart="128.79">
        <walk edges="679893548#4 679893548#3 679893548#2 -679893548#1 -679893548#0 181981606#0 -679900861 679900858 679900853#2 679900854 -679900855 -589282615#1 -589282617 -153786637#2 -153786637#1 679648101#0 679648104#0 679648104#1 679648103#1 680178944#0 364719376#9 364719376#10 364719376#11 -364719376#12 178621272#0 -178619382#1 -168985931#1 -168985931#0 -35843040#9 -35843040#8 -35843040#7 427268437 -168986695 -168978943#0 -168978947#6 -168978947#5 -168978947#4 -168978947#3 -168978947#2 679567170 679567164#0 825193310#1 825193311#1 825193294#3 825193294#2 73338977#0 739565331#4 428041424#4 825193304#1 679567175#15 679567175#14 679567175#13 679567175#12 679567175#11 679567175#10 679567175#9 679567175#8 679567175#7 679567175#6 -767895312#2 -767895312#1 -767895312#0 -35849881#9 737908312 -35849881#6 -35849881#5 841657392#3 841657392#2 -35849753#3 751585958 -35849876#10"/>
    </person>
    <person id="ped77" type="ped_pedestrian" depart="130.48">
        <walk edges="-201782944#5 -201784225#2 -201784225#1 -201784225#0 -201784229#0 201784226#0 -201660739#11 -201663517 201663516#2 -201663516#1 -201663526 310934519 311738812#2 311738812#3 310934517 310934518#0 310934518#1 310934518#2 310934516 310934520 737840383#0 737840383#1 737840382#1 737840382#2 737840382#3 314367715#0 -35849839#1 -35849839#2 -737261017 735271666 837859840#2 837859840#3 837859842 594074463#0 594074463#1 594074463#2 594074463#3 594074463#4 735271668#0 735271668#1 -35844482#9 -35844482#7 -35844507#9 -35844507#8 737239556#2 737239556#1 737239556#0 737239555#1 -174418562#2 735271673#0 735271673#1 738472062#3 738472062#2 738472062#1 738472062#0 736525488#3 679567175#15 825193304#1 428041424#4 739565331#4 73338977#0 825193294#2 825193294#3 825193311#1 825193310#1 679567164#0 679567170 -168978947#2 -168978947#3 -168978947#4 -168978947#5 -168978947#6 -168978947#7 -168978947#8 168978947#9 -168985783 -168985777#0 168985776#0"/>
    </person>
    <person id="ped78" type="ped_pedestrian" depart="132.18">
        <walk edges="168978947#1 679567170 679567164#0 825193310#1 825193311#1 825193294#3 825193294#2 73338977#0 739565331#4 428041424#4 825193304#1 679567175#15 736525488#3 738472062#0 738472062#1 738472062#2 738472062#3 735271673#1 735271673#0 -174418562#2 737239555#1 737239556#0 737239556#1 737239556#2 -35844507#8 -35844507#9 -35844482#7 -35844482#9 735271668#1 735271668#0 594074463#4 594074463#3 594074463#2 594074463#1 594074463#0 837859842 837859840#3 837859840#2 735271666 -737261017 -35849839#2 -35849839#1 314367715#0 737840382#3 737840382#2 737840382#1 679567182#0 679567182#1 740682984#1 679567180#0 -832196903 -35843200#0 -551042553#1 -35845316#1 -178622692#0 -178622692#1 -178622692#2 178622692#3"/>
    </person>
    <person id="ped79" type="ped_pedestrian" depart="133.87">
        <walk edges="840886400#0 -840886400#1 -840886400#2 -840886400#3 -840886400#4 -840886400#5 679567174#2 841515007#1 841515011#1 841514983 679567177#1 841514980 841514985#2 841514985#1 841514987#1 314367715#2 314367715#1 314367715#0 737840382#3 737840382#2 737840382#1 737840383#1 737840383#0 310934520 310934516 310934518#2 310934518#1 310934518#0 310934517 311738812#3 311738812#2 310934519 -201663526 -201663516#1 201663516#2 -201663517 -201660739#11 201784226#0 -201784229#0 -201784225#0 -201784225#1"/>
    </person>
    <person id="ped81" type="ped_pedestrian" depart="137.26">
        <walk edges="735267036#1 -735267036#0 -735236445#3 -826496731 -826496730 -736507107#0 736533467#2 737263228 735267029#4 594074462#0 679567175#6 -767895312#3 739565330 594588658#0 840880731 -484782254"/>
    </person>
    <person id="ped82" type="ped_pedestrian" depart="138.95">
        <walk edges="-35849876#1 -35849876#0 -35849881#8 -35849881#9 -767895312#0 -767895312#1 -767895312#2 679567175#6 679567175#7 679567175#8 679567175#9 679567175#10 679567175#11 679567175#12 679567175#13 679567175#14 679567175#15 825193304#1 428041424#4 739565331#4 73338977#0 825193294#2 825193294#3 825193311#1 825193310#1 679567163#1 133270576 679567162 679567156#2 679567156#3 679567156#4 738575615#0 780486716 -35845310#1 178482742#0"/>
    </person>
    <person id="ped83" type="ped_pedestrian" depart="140.65">
        <walk edges="168978945#1 168986488#1 679567168 168977074#0 168977077#4 168977077#3 168977077#2 168977076#3 168977076#2 168977076#1 168977076#0 825193295#1 739565331#4 428041424#4 825193304#1 679567175#15 736525488#3 738472062#0 738472062#1 738472062#2 738472062#3 735271673#1 735271673#0 -174418562#2 737239555#1 737239556#0 737239556#1 737239556#2 -35844507#8 -35844507#9 -35844482#7 -35844482#9 735271668#1 735271668#0 594074463#4 594074463#3 594074463#2 594074463#1 594074463#0 837859842 837859840#3 837859840#2 735271666 -737261017 -35849839#2 -35849839#1 314367715#0 737840382#3 737840382#2 737840382#1 737840383#1 737840383#0 310934520 310934516 310934518#2 310934518#1 310935441 310935440 310935442 680134289#1 -201660739#4 -201660739#3 680134288 -737868489#0 -737868489#1 -737868489#2 -737868489#3 -737868489#4 -737868489#5 737868489#6 -156581274#4 -581522783 -581522782#0 581522786#0 -581522786#1"/>
    </person>
    <person id="ped85" type="ped_pedestrian" depart="144.04">
        <walk edges="168987968#0 168987958#2 -168987958#1 -168987958#0 133270576 679567163#1 825193310#1 825193311#1 825193294#3 825193294#2 73338977#0 739565331#4 428041424#4 825193304#1 679567175#15 736525488#3 738472062#0 738472062#1 738472062#2 738472062#3 735271673#1 735271673#0 -174418562#2 737239555#1 737239556#0 737239556#1 737239556#2 -35844507#8 -35844507#9 -35844482#7 -35844482#9 -735236445#2 735267036#0"/>
    </person>
    <person id="ped88" type="ped_pedestrian" depart="149.12">
        <walk edges="825193285 739753630#0 -178305947#1 -178305947#0 -168987969#0 -737862472 -168987959#0 737888333 680134266#0 680134266#1 1044684835#1 679567149 109871924#0 35843017#5 -35849776#2 -735260459 735260460#7 -735260460#6 -738264974#2 735267046#1 735267046#0 735271667#3 735271667#2 756011449"/>
    </person>
    <person id="ped89" type="ped_pedestrian" depart="150.82">
        <walk edges="73339159#4 73341753#0 73338977#8 73338977#7 73338977#6 73338977#5 73338977#4 73338977#3 73338977#2 825193297#1 679567137 679567175#15 736525488#3 738472062#0 738472062#1 738472062#2 738472062#3 735271673#1 735271673#0 -174418562#2 737239555#1 737239556#0 737239556#1 737239556#2 -35844507#8 -35844507#9"/>
    </person>
    <person id="ped92" type="ped_pedestrian" depart="155.90">
        <walk edges="1006110297 -35843200#3 35843200#2 -35843200#1 -832196903 679567180#0 740682984#1 679567182#1 679567182#0 737840382#1 737840382#2 737840382#3 314367715#0 314367715#1 314367715#2 841514987#1 841514985#1 841514985#2 841514980 679567177#1 841514983 841515011#1 841515007#1 679567174#2 840886400#5"/>
    </person>
    <person id="ped94" type="ped_pedestrian" depart="159.29">