<?xml version="1.0" encoding="UTF-8"?>

<!-- generated on 2023-07-13 18:17:42.979924 by osmWebWizard.py v1_18_0+0000-03ecfdea036
<configuration>
    <net-file value="C:\Users\Rustam Mattiev\2023-07-13-18-17-30\osm.net.xml.gz"/>
    <output-trip-file value="C:\Users\Rustam Mattiev\2023-07-13-18-17-30\osm.motorcycle.trips.xml"/>
    <route-file value="C:\Users\Rustam Mattiev\2023-07-13-18-17-30\osm.motorcycle.rou.xml"/>
    <prefix value="motorcycle"/>
    <trip-attributes value="departLane=&quot;best&quot;"/>
    <fringe-start-attributes value="departSpeed=&quot;max&quot;"/>
    <vehicle-class value="motorcycle"/>
    <fringe-factor value="2"/>
    <vclass value="motorcycle"/>
    <via-edge-types value="highway.motorway,highway.motorway_link,highway.trunk_link,highway.primary_link,highway.secondary_link,highway.tertiary_link"/>
    <max-distance value="1200.0"/>
    <remove-loops value="True"/>
    <validate value="True"/>
    <insertion-density value="4.0"/>
</configuration>
-->

<!-- generated on 2023-07-13 18:17:42 by Eclipse SUMO duarouter Version 1.18.0
<configuration xmlns:xsi="http://www.w3.org/2001/XMLSchema-instance" xsi:noNamespaceSchemaLocation="http://sumo.dlr.de/xsd/duarouterConfiguration.xsd">

    <input>
        <net-file value="C:\Users\Rustam Mattiev\2023-07-13-18-17-30\osm.net.xml.gz"/>
        <route-files value="C:\Users\Rustam Mattiev\2023-07-13-18-17-30\osm.motorcycle.trips.xml"/>
    </input>

    <output>
        <output-file value="C:\Users\Rustam Mattiev\2023-07-13-18-17-30\osm.motorcycle.trips.xml.tmp"/>
        <alternatives-output value="NUL"/>
        <write-trips value="true"/>
    </output>

    <processing>
        <remove-loops value="true"/>
    </processing>

    <time>
        <begin value="0.0"/>
        <end value="3600.0"/>
    </time>

    <report>
        <no-warnings value="true"/>
        <ignore-errors value="true"/>
        <no-step-log value="true"/>
    </report>

</configuration>
-->

<routes xmlns:xsi="http://www.w3.org/2001/XMLSchema-instance" xsi:noNamespaceSchemaLocation="http://sumo.dlr.de/xsd/routes_file.xsd">
    <vType id="motorcycle_motorcycle" vClass="motorcycle"/>
    <trip id="motorcycle0" type="motorcycle_motorcycle" depart="0.00" departLane="best" from="-35843043#4" to="133270585#15"/>
    <trip id="motorcycle1" type="motorcycle_motorcycle" depart="5.93" departLane="best" from="35845973#1" to="-35844537#0"/>
    <trip id="motorcycle2" type="motorcycle_motorcycle" depart="11.86" departLane="best" from="540537300#7" to="-317264298#0"/>
    <trip id="motorcycle3" type="motorcycle_motorcycle" depart="17.78" departLane="best" from="-35843193#0" to="311690780#4"/>
    <trip id="motorcycle4" type="motorcycle_motorcycle" depart="23.71" departLane="best" from="35844500#0" to="-328021283#1"/>
    <trip id="motorcycle5" type="motorcycle_motorcycle" depart="29.64" departLane="best" from="-35846230#3" to="35844329#1"/>
    <trip id="motorcycle6" type="motorcycle_motorcycle" depart="35.57" departLane="best" from="-403846312" to="-35843193#0"/>
    <trip id="motorcycle7" type="motorcycle_motorcycle" depart="41.50" departLane="best" from="318298137#3" to="318298137#8"/>
    <trip id="motorcycle9" type="motorcycle_motorcycle" depart="53.35" departLane="best" from="-35844519#2" to="35846230#4"/>
    <trip id="motorcycle10" type="motorcycle_motorcycle" depart="59.28" departLane="best" from="-327288963#1" to="35845986#20"/>
    <trip id="motorcycle12" type="motorcycle_motorcycle" depart="71.13" departLane="best" from="35843204#3" to="35844834#12"/>
    <trip id="motorcycle13" type="motorcycle_motorcycle" depart="77.06" departLane="best" from="-35843197#0" to="-679893524#6"/>
    <trip id="motorcycle14" type="motorcycle_motorcycle" depart="82.99" departLane="best" from="312891127#1" to="35844293#1"/>
    <trip id="motorcycle15" type="motorcycle_motorcycle" depart="88.92" departLane="best" from="-35844519#4" to="-134120211#0"/>
    <trip id="motorcycle17" type="motorcycle_motorcycle" depart="100.77" departLane="best" from="-35845424#8" to="-35845414#6"/>
    <trip id="motorcycle18" type="motorcycle_motorcycle" depart="106.70" departLane="best" from="312891127#3" to="35845967#3"/>
    <trip id="motorcycle19" type="motorcycle_motorcycle" depart="112.63" departLane="best" from="-328021283#1" to="35843019#4"/>
    <trip id="motorcycle20" type="motorcycle_motorcycle" depart="118.56" departLane="best" from="-299080520#0" to="680134293#0"/>
    <trip id="motorcycle21" type="motorcycle_motorcycle" depart="124.49" departLane="best" from="984872684" to="302363668#0"/>
    <trip id="motorcycle22" type="motorcycle_motorcycle" depart="130.41" departLane="best" from="-126815762#0" to="35844537#0"/>
    <trip id="motorcycle23" type="motorcycle_motorcycle" depart="136.34" departLane="best" from="35844291#3" to="-310909556#4"/>
    <trip id="motorcycle24" type="motorcycle_motorcycle" depart="142.27" departLane="best" from="-362197200#0" to="201662464#4"/>
    <trip id="motorcycle25" type="motorcycle_motorcycle" depart="148.20" departLane="best" from="-314608192#0" to="133869628"/>
    <trip id="motorcycle26" type="motorcycle_motorcycle" depart="154.13" departLane="best" from="302363551#3" to="-35845424#12"/>
    <trip id="motorcycle27" type="motorcycle_motorcycle" depart="160.05" departLane="best" departSpeed="max" from="35845518" to="347948454#0"/>
    <trip id="motorcycle28" type="motorcycle_motorcycle" depart="165.98" departLane="best" from="-302363668#6" to="-35844834#13"/>
    <trip id="motorcycle29" type="motorcycle_motorcycle" depart="171.91" departLane="best" from="-35844298#3" to="-369817110#1"/>
    <trip id="motorcycle30" type="motorcycle_motorcycle" depart="177.84" departLane="best" from="403846306#1" to="-327947729#8"/>
    <trip id="motorcycle31" type="motorcycle_motorcycle" depart="183.76" departLane="best" from="-35844535#1" to="35844519#2"/>
    <trip id="motorcycle32" type="motorcycle_motorcycle" depart="189.69" departLane="best" from="-35844332#2" to="349757784#3"/>
    <trip id="motorcycle33" type="motorcycle_motorcycle" depart="195.62" departLane="best" from="126815763" to="-35845986#2"/>
    <trip id="motorcycle34" type="motorcycle_motorcycle" depart="201.55" departLane="best" from="-35846230#5" to="-35844293#1"/>
    <trip id="motorcycle35" type="motorcycle_motorcycle" depart="207.48" departLane="best" from="42941539#4" to="-35845424#1"/>
    <trip id="motorcycle36" type="motorcycle_motorcycle" depart="213.40" departLane="best" from="-737862462#0" to="42941539#3"/>
    <trip id="motorcycle37" type="motorcycle_motorcycle" depart="219.33" departLane="best" from="581522782#1" to="756582327#1"/>
    <trip id="motorcycle38" type="motorcycle_motorcycle" depart="225.26" departLane="best" from="35845424#8" to="-35845986#18"/>
    <trip id="motorcycle39" type="motorcycle_motorcycle" depart="231.19" departLane="best" from="984872684" to="-680166654"/>
    <trip id="motorcycle40" type="motorcycle_motorcycle" depart="237.12" departLane="best" from="680166650#1" to="-984872684"/>
    <trip id="motorcycle41" type="motorcycle_motorcycle" depart="243.04" departLane="best" from="311740851#1" to="35844519#4"/>
    <trip id="motorcycle42" type="motorcycle_motorcycle" depart="248.97" departLane="best" from="-154493699#12" to="403846303#1"/>
    <trip id="motorcycle44" type="motorcycle_motorcycle" depart="260.83" departLane="best" from="311690779" to="-35844291#0"/>
    <trip id="motorcycle45" type="motorcycle_motorcycle" depart="266.76" departLane="best" from="540537300#5" to="-35845414#6"/>
    <trip id="motorcycle46" type="motorcycle_motorcycle" depart="272.68" departLane="best" from="-35844307#1" to="-35844519#1"/>
    <trip id="motorcycle47" type="motorcycle_motorcycle" depart="278.61" departLane="best" from="35844834#11" to="-680166608"/>
    <trip id="motorcycle48" type="motorcycle_motorcycle" depart="284.54" departLane="best" from="35844275#5" to="-362197200#0"/>
    <trip id="motorcycle49" type="motorcycle_motorcycle" depart="290.47" departLane="best" from="-48049173#7" to="-48049173#2"/>
    <trip id="motorcycle50" type="motorcycle_motorcycle" depart="296.39" departLane="best" from="-35845967#2" to="337515390#1"/>
    <trip id="motorcycle51" type="motorcycle_motorcycle" depart="302.32" departLane="best" from="35844535#0" to="-35844329#0"/>
    <trip id="motorcycle52" type="motorcycle_motorcycle" depart="308.25" departLane="best" from="-35843043#1" to="35845967#2"/>
    <trip id="motorcycle53" type="motorcycle_motorcycle" depart="314.18" departLane="best" from="-302363668#5" to="48049173#9"/>
    <trip id="motorcycle56" type="motorcycle_motorcycle" depart="331.96" departLane="best" from="35845986#15" to="-145659797#1"/>
    <trip id="motorcycle57" type="motorcycle_motorcycle" depart="337.89" departLane="best" from="-133270585#12" to="35844834#8"/>
    <trip id="motorcycle58" type="motorcycle_motorcycle" depart="343.82" departLane="best" from="35846212#4" to="-35844549#2"/>
    <trip id="motorcycle59" type="motorcycle_motorcycle" depart="349.75" departLane="best" from="-133270574#9" to="-35844298#1"/>
    <trip id="motorcycle61" type="motorcycle_motorcycle" depart="361.60" departLane="best" from="-332458752#3" to="184464789"/>
    <trip id="motorcycle62" type="motorcycle_motorcycle" depart="367.53" departLane="best" from="-679893524#3" to="-318298137#8"/>
    <trip id="motorcycle63" type="motorcycle_motorcycle" depart="373.46" departLane="best" from="-1006485177#2" to="680134294#1"/>
    <trip id="motorcycle64" type="motorcycle_motorcycle" depart="379.39" departLane="best" from="35845312#15" to="35844275#3"/>
    <trip id="motorcycle65" type="motorcycle_motorcycle" depart="385.31" departLane="best" from="-35844256" to="-403846303#1"/>
    <trip id="motorcycle66" type="motorcycle_motorcycle" depart="391.24" departLane="best" from="-364719376#12" to="680166633"/>
    <trip id="motorcycle67" type="motorcycle_motorcycle" depart="397.17" departLane="best" from="35846309#3" to="311690780#8"/>
    <trip id="motorcycle68" type="motorcycle_motorcycle" depart="403.10" departLane="best" from="-1006485177#0" to="35846230#0"/>
    <trip id="motorcycle70" type="motorcycle_motorcycle" depart="414.95" departLane="best" from="35846212#5" to="-35844242#1"/>
    <trip id="motorcycle71" type="motorcycle_motorcycle" depart="420.88" departLane="best" from="-35844275#6" to="-35844547"/>
    <trip id="motorcycle72" type="motorcycle_motorcycle" depart="426.81" departLane="best" from="-35844834#4" to="133270574#2"/>
    <trip id="motorcycle73" type="motorcycle_motorcycle" depart="432.74" departLane="best" from="-35844291#3" to="35844324#2"/>
    <trip id="motorcycle74" type="motorcycle_motorcycle" depart="438.66" departLane="best" from="987593666#1" to="35846218#4"/>
    <trip id="motorcycle75" type="motorcycle_motorcycle" depart="444.59" departLane="best" from="540537300#6" to="-347948450#3"/>
    <trip id="motorcycle76" type="motorcycle_motorcycle" depart="450.52" departLane="best" from="-349757784#5" to="-35845986#15"/>
    <trip id="motorcycle77" type="motorcycle_motorcycle" depart="456.45" departLane="best" from="-35844537#0" to="35844319#2"/>
    <trip id="motorcycle78" type="motorcycle_motorcycle" depart="462.38" departLane="best" from="35844487#4" to="299080520#1"/>
    <trip id="motorcycle79" type="motorcycle_motorcycle" depart="468.30" departLane="best" from="-318298137#8" to="-35844324#1"/>
    <trip id="motorcycle80" type="motorcycle_motorcycle" depart="474.23" departLane="best" from="403846307" to="-35845424#9"/>
    <trip id="motorcycle81" type="motorcycle_motorcycle" depart="480.16" departLane="best" from="591307587#2" to="125578297#1"/>
    <trip id="motorcycle82" type="motorcycle_motorcycle" depart="486.09" departLane="best" from="-680166640" to="35845312#5"/>
    <trip id="motorcycle84" type="motorcycle_motorcycle" depart="497.94" departLane="best" from="-35844500#0" to="-35844519#1"/>
    <trip id="motorcycle85" type="motorcycle_motorcycle" depart="503.87" departLane="best" departSpeed="max" from="-35844329#2" to="-377816342#0"/>
    <trip id="motorcycle86" type="motorcycle_motorcycle" depart="509.80" departLane="best" from="-35845414#1" to="-311740851#1"/>
    <trip id="motorcycle87" type="motorcycle_motorcycle" depart="515.73" departLane="best" from="35843193#3" to="-35845986#14"/>
    <trip id="motorcycle88" type="motorcycle_motorcycle" depart="521.65" departLane="best" from="-347948450#1" to="35844275#2"/>
    <trip id="motorcycle89" type="motorcycle_motorcycle" depart="527.58" departLane="best" from="312891127#7" to="-35844512#7"/>
    <trip id="motorcycle90" type="motorcycle_motorcycle" depart="533.51" departLane="best" from="680166650#2" to="680166609#0"/>
    <trip id="motorcycle91" type="motorcycle_motorcycle" depart="539.44" departLane="best" from="35844302#1" to="35843019#4"/>
    <trip id="motorcycle92" type="motorcycle_motorcycle" depart="545.37" departLane="best" from="-403846302#0" to="332458752#5"/>
    <trip id="motorcycle93" type="motorcycle_motorcycle" depart="551.29" departLane="best" from="35845986#18" to="-540537300#13"/>
    <trip id="motorcycle94" type="motorcycle_motorcycle" depart="557.22" departLane="best" from="-680166652#1" to="-591307587#0"/>
    <trip id="motorcycle95" type="motorcycle_motorcycle" depart="563.15" departLane="best" from="377816342#1" to="362197199#1"/>
    <trip id="motorcycle96" type="motorcycle_motorcycle" depart="569.08" departLane="best" from="35843020#4" to="-364719376#4"/>
    <trip id="motorcycle97" type="motorcycle_motorcycle" depart="575.01" departLane="best" from="35844834#5" to="680166656#0"/>
    <trip id="motorcycle98" type="motorcycle_motorcycle" depart="580.93" departLane="best" departSpeed="max" from="-35845516" to="-35846230#4"/>
    <trip id="motorcycle99" type="motorcycle_motorcycle" depart="586.86" departLane="best" from="-302363668#4" to="133270585#4"/>
    <trip id="motorcycle100" type="motorcycle_motorcycle" depart="592.79" departLane="best" from="-680202537#1" to="-35844834#15"/>
    <trip id="motorcycle101" type="motorcycle_motorcycle" depart="598.72" departLane="best" from="-35845495#2" to="-403846303#0"/>
    <trip id="motorcycle102" type="motorcycle_motorcycle" depart="604.64" departLane="best" from="48049173#9" to="-35845414#3"/>
    <trip id="motorcycle103" type="motorcycle_motorcycle" depart="610.57" departLane="best" from="581522782#1" to="-133869628"/>
    <trip id="motorcycle104" type="motorcycle_motorcycle" depart="616.50" departLane="best" departSpeed="max" from="-35844329#2" to="35846218#0"/>
    <trip id="motorcycle105" type="motorcycle_motorcycle" depart="622.43" departLane="best" from="-35844342#0" to="35845986#18"/>
    <trip id="motorcycle106" type="motorcycle_motorcycle" depart="628.36" departLane="best" from="-314608192#0" to="35844537#0"/>
    <trip id="motorcycle107" type="motorcycle_motorcycle" depart="634.28" departLane="best" from="-133270585#7" to="-35845424#1"/>
    <trip id="motorcycle108" type="motorcycle_motorcycle" depart="640.21" departLane="best" from="318298137#3" to="-35844535#0"/>
    <trip id="motorcycle109" type="motorcycle_motorcycle" depart="646.14" departLane="best" from="318298137#5" to="133270574#10"/>
    <trip id="motorcycle110" type="motorcycle_motorcycle" depart="652.07" departLane="best" from="302363551#0" to="-680178941"/>
    <trip id="motorcycle111" type="motorcycle_motorcycle" depart="658.00" departLane="best" from="35845312#5" to="-403846306#0"/>
    <trip id="motorcycle112" type="motorcycle_motorcycle" depart="663.92" departLane="best" from="-35844342#2" to="35845986#10"/>
    <trip id="motorcycle113" type="motorcycle_motorcycle" depart="669.85" departLane="best" departSpeed="max" from="-35845360" to="-333378696#0"/>
    <trip id="motorcycle114" type="motorcycle_motorcycle" depart="675.78" departLane="best" from="-302363668#1" to="35845424#2"/>
    <trip id="motorcycle115" type="motorcycle_motorcycle" depart="681.71" departLane="best" from="-35844275#6" to="-35844512#3"/>
    <trip id="motorcycle116" type="motorcycle_motorcycle" depart="687.64" departLane="best" from="737281059#1" to="-302363551#0"/>
    <trip id="motorcycle117" type="motorcycle_motorcycle" depart="693.56" departLane="best" from="-35845986#16" to="-327288962#0"/>
    <trip id="motorcycle118" type="motorcycle_motorcycle" depart="699.49" departLane="best" from="-35844291#3" to="-35844549#2"/>
    <trip id="motorcycle119" type="motorcycle_motorcycle" depart="705.42" departLane="best" from="35844329#0" to="-347948451#0"/>
    <trip id="motorcycle121" type="motorcycle_motorcycle" depart="717.27" departLane="best" from="42941553#4" to="-318298137#5"/>
    <trip id="motorcycle122" type="motorcycle_motorcycle" depart="723.20" departLane="best" departSpeed="max" from="-126815762#0" to="-740661097#2"/>
    <trip id="motorcycle123" type="motorcycle_motorcycle" depart="729.13" departLane="best" from="-35845495#0" to="337515390#4"/>
    <trip id="motorcycle124" type="motorcycle_motorcycle" depart="735.06" departLane="best" from="35845986#8" to="35844549#0"/>
    <trip id="motorcycle125" type="motorcycle_motorcycle" depart="740.99" departLane="best" from="694782913" to="42941539#2"/>
    <trip id="motorcycle126" type="motorcycle_motorcycle" depart="746.91" departLane="best" from="-347948454#1" to="345727211#0"/>
    <trip id="motorcycle127" type="motorcycle_motorcycle" depart="752.84" departLane="best" from="-35844324#1" to="-35844494#0"/>
    <trip id="motorcycle128" type="motorcycle_motorcycle" depart="758.77" departLane="best" from="-35844537#0" to="35844487#3"/>
    <trip id="motorcycle129" type="motorcycle_motorcycle" depart="764.70" departLane="best" from="35845986#5" to="35843019#1"/>
    <trip id="motorcycle130" type="motorcycle_motorcycle" depart="770.63" departLane="best" from="364719376#12" to="-302363668#0"/>
    <trip id="motorcycle131" type="motorcycle_motorcycle" depart="776.55" departLane="best" from="35844298#3" to="35844329#2"/>
    <trip id="motorcycle132" type="motorcycle_motorcycle" depart="782.48" departLane="best" from="134120211#0" to="-311690779"/>
    <trip id="motorcycle133" type="motorcycle_motorcycle" depart="788.41" departLane="best" from="-369817110#1" to="318298137#6"/>
    <trip id="motorcycle134" type="motorcycle_motorcycle" depart="794.34" departLane="best" from="35844275#5" to="-35845986#0"/>
    <trip id="motorcycle135" type="motorcycle_motorcycle" depart="800.27" departLane="best" from="-35844275#3" to="-411126418"/>
    <trip id="motorcycle136" type="motorcycle_motorcycle" depart="806.19" departLane="best" from="778590555#2" to="35843204#1"/>
    <trip id="motorcycle137" type="motorcycle_motorcycle" depart="812.12" departLane="best" from="-35845424#11" to="35843019#2"/>
    <trip id="motorcycle140" type="motorcycle_motorcycle" depart="829.90" departLane="best" from="1124220433#2" to="332458752#2"/>
    <trip id="motorcycle141" type="motorcycle_motorcycle" depart="835.83" departLane="best" from="364719378#0" to="-154493699#6"/>
    <trip id="motorcycle142" type="motorcycle_motorcycle" depart="841.76" departLane="best" from="-35845967#3" to="369817110#0"/>
    <trip id="motorcycle143" type="motorcycle_motorcycle" depart="847.69" departLane="best" from="739572904#1" to="-35845414#2"/>
    <trip id="motorcycle145" type="motorcycle_motorcycle" depart="859.54" departLane="best" from="-35845973#3" to="35845986#6"/>
    <trip id="motorcycle146" type="motorcycle_motorcycle" depart="865.47" departLane="best" from="-680166631#7" to="680166601#1"/>
    <trip id="motorcycle147" type="motorcycle_motorcycle" depart="871.40" departLane="best" from="-35845986#16" to="-362197199#0"/>
    <trip id="motorcycle149" type="motorcycle_motorcycle" depart="883.26" departLane="best" from="984872684" to="371237121#4"/>
    <trip id="motorcycle150" type="motorcycle_motorcycle" depart="889.18" departLane="best" from="-35844286#1" to="35844329#0"/>
    <trip id="motorcycle151" type="motorcycle_motorcycle" depart="895.11" departLane="best" from="35845312#4" to="35844342#3"/>
    <trip id="motorcycle152" type="motorcycle_motorcycle" depart="901.04" departLane="best" from="-154493699#0" to="-154927649#2"/>
    <trip id="motorcycle153" type="motorcycle_motorcycle" depart="906.97" departLane="best" from="327288963#1" to="42941553#15"/>
    <trip id="motorcycle154" type="motorcycle_motorcycle" depart="912.90" departLane="best" from="42941553#6" to="-740661097#2"/>
    <trip id="motorcycle155" type="motorcycle_motorcycle" depart="918.82" departLane="best" from="35843193#0" to="-403846303#0"/>
    <trip id="motorcycle156" type="motorcycle_motorcycle" depart="924.75" departLane="best" from="347948451#2" to="987593666#1"/>
    <trip id="motorcycle158" type="motorcycle_motorcycle" depart="936.61" departLane="best" from="154927649#1" to="35846212#2"/>
    <trip id="motorcycle159" type="motorcycle_motorcycle" depart="942.53" departLane="best" from="-35843020#3" to="302363668#3"/>
    <trip id="motorcycle160" type="motorcycle_motorcycle" depart="948.46" departLane="best" from="-35845414#4" to="35845424#6"/>
    <trip id="motorcycle162" type="motorcycle_motorcycle" depart="960.32" departLane="best" from="-35843043#3" to="-680166658"/>
    <trip id="motorcycle163" type="motorcycle_motorcycle" depart="966.25" departLane="best" from="-133270574#9" to="-35844834#4"/>
    <trip id="motorcycle164" type="motorcycle_motorcycle" depart="972.17" departLane="best" from="314579016#2" to="-318298137#6"/>
    <trip id="motorcycle165" type="motorcycle_motorcycle" depart="978.10" departLane="best" from="-35845967#4" to="314608192#0"/>
    <trip id="motorcycle166" type="motorcycle_motorcycle" depart="984.03" departLane="best" from="35845986#21" to="35846218#1"/>
    <trip id="motorcycle167" type="motorcycle_motorcycle" depart="989.96" departLane="best" from="35844286#3" to="35844537#1"/>
    <trip id="motorcycle170" type="motorcycle_motorcycle" depart="1007.74" departLane="best" from="-35844242#1" to="349757784#2"/>
    <trip id="motorcycle171" type="motorcycle_motorcycle" depart="1013.67" departLane="best" from="-302363668#6" to="680202538"/>
    <trip id="motorcycle172" type="motorcycle_motorcycle" depart="1019.60" departLane="best" from="-302363551#0" to="-591307587#1"/>
    <trip id="motorcycle173" type="motorcycle_motorcycle" depart="1025.53" departLane="best" from="364719376#10" to="-133270585#16"/>
    <trip id="motorcycle174" type="motorcycle_motorcycle" depart="1031.45" departLane="best" from="-680166656#0" to="-35843020#0"/>
    <trip id="motorcycle176" type="motorcycle_motorcycle" depart="1043.31" departLane="best" from="35844500#1" to="-299080520#0"/>
    <trip id="motorcycle177" type="motorcycle_motorcycle" depart="1049.24" departLane="best" from="-35844275#3" to="35845312#15"/>
    <trip id="motorcycle178" type="motorcycle_motorcycle" depart="1055.16" departLane="best" from="-680166631#6" to="-680166650#2"/>
    <trip id="motorcycle179" type="motorcycle_motorcycle" depart="1061.09" departLane="best" from="133270585#8" to="-680166633"/>
    <trip id="motorcycle181" type="motorcycle_motorcycle" depart="1072.95" departLane="best" from="-327288962#1" to="35844293#3"/>
    <trip id="motorcycle183" type="motorcycle_motorcycle" depart="1084.80" departLane="best" from="302363551#3" to="-35845424#8"/>
    <trip id="motorcycle184" type="motorcycle_motorcycle" depart="1090.73" departLane="best" from="35844324#0" to="-35844512#2"/>
    <trip id="motorcycle187" type="motorcycle_motorcycle" depart="1108.52" departLane="best" from="35843204#4" to="133270585#2"/>
    <trip id="motorcycle188" type="motorcycle_motorcycle" depart="1114.44" departLane="best" from="-35844834#10" to="-371237121#6"/>
    <trip id="motorcycle189" type="motorcycle_motorcycle" depart="1120.37" departLane="best" from="35845312#5" to="-133270574#6"/>
    <trip id="motorcycle190" type="motorcycle_motorcycle" depart="1126.30" departLane="best" from="35845986#12" to="201662464#2"/>
    <trip id="motorcycle191" type="motorcycle_motorcycle" depart="1132.23" departLane="best" departSpeed="max" from="591307587#0" to="302363668#3"/>
    <trip id="motorcycle192" type="motorcycle_motorcycle" depart="1138.16" departLane="best" from="-311740851#0" to="337515390#5"/>
    <trip id="motorcycle193" type="motorcycle_motorcycle" depart="1144.08" departLane="best" from="299080520#3" to="-35845986#16"/>
    <trip id="motorcycle195" type="motorcycle_motorcycle" depart="1155.94" departLane="best" from="-299080520#4" to="1006485177#0"/>
    <trip id="motorcycle196" type="motorcycle_motorcycle" depart="1161.87" departLane="best" from="-35843193#4" to="35845495#3"/>
    <trip id="motorcycle197" type="motorcycle_motorcycle" depart="1167.79" departLane="best" from="-35844549#0" to="-35844512#1"/>
    <trip id="motorcycle198" type="motorcycle_motorcycle" depart="1173.72" departLane="best" from="403846306#2" to="1006485177#0"/>
    <trip id="motorcycle201" type="motorcycle_motorcycle" depart="1191.51" departLane="best" from="35845414#3" to="42941553#13"/>
    <trip id="motorcycle202" type="motorcycle_motorcycle" depart="1197.43" departLane="best" from="328021285#1" to="-540537300#7"/>
    <trip id="motorcycle203" type="motorcycle_motorcycle" depart="1203.36" departLane="best" from="318298137#0" to="35844500#0"/>
    <trip id="motorcycle205" type="motorcycle_motorcycle" depart="1215.22" departLane="best" from="-314608192#1" to="35846230#3"/>
    <trip id="motorcycle206" type="motorcycle_motorcycle" depart="1221.15" departLane="best" from="680166600#0" to="364719376#5"/>
    <trip id="motorcycle207" type="motorcycle_motorcycle" depart="1227.07" departLane="best" from="-35845495#0" to="35844275#8"/>
    <trip id="motorcycle208" type="motorcycle_motorcycle" depart="1233.00" departLane="best" from="403846307" to="125578297#1"/>
    <trip id="motorcycle210" type="motorcycle_motorcycle" depart="1244.86" departLane="best" from="-35843020#1" to="-134120210"/>
    <trip id="motorcycle211" type="motorcycle_motorcycle" depart="1250.79" departLane="best" from="35845312#5" to="-35844512#1"/>
    <trip id="motorcycle212" type="motorcycle_motorcycle" depart="1256.71" departLane="best" from="-35844275#8" to="-35845986#12"/>
    <trip id="motorcycle213" type="motorcycle_motorcycle" depart="1262.64" departLane="best" from="35843378" to="133869628"/>
    <trip id="motorcycle214" type="motorcycle_motorcycle" depart="1268.57" departLane="best" from="-35844275#1" to="-154927649#1"/>
    <trip id="motorcycle215" type="motorcycle_motorcycle" depart="1274.50" departLane="best" departSpeed="max" from="-35844329#2" to="-35843019#3"/>
    <trip id="motorcycle216" type="motorcycle_motorcycle" depart="1280.42" departLane="best" from="35844242#1" to="679893524#7"/>
    <trip id="motorcycle217" type="motorcycle_motorcycle" depart="1286.35" departLane="best" from="-35844342#3" to="154927649#0"/>
    <trip id="motorcycle219" type="motorcycle_motorcycle" depart="1298.21" departLane="best" from="347948451#2" to="42941539#4"/>
    <trip id="motorcycle220" type="motorcycle_motorcycle" depart="1304.14" departLane="best" from="-317264298#1" to="-318298137#4"/>
    <trip id="motorcycle221" type="motorcycle_motorcycle" depart="1310.06" departLane="best" from="-369817111#0" to="35846218#4"/>
    <trip id="motorcycle222" type="motorcycle_motorcycle" depart="1315.99" departLane="best" from="347948451#0" to="-364719378#0"/>
    <trip id="motorcycle223" type="motorcycle_motorcycle" depart="1321.92" departLane="best" from="-679893524#8" to="317264298#1"/>
    <trip id="motorcycle224" type="motorcycle_motorcycle" depart="1327.85" departLane="best" from="371237121#3" to="35845414#2"/>
    <trip id="motorcycle225" type="motorcycle_motorcycle" depart="1333.78" departLane="best" from="327288962#1" to="-299080520#4"/>
    <trip id="motorcycle226" type="motorcycle_motorcycle" depart="1339.70" departLane="best" from="-403846307" to="-403846306#2"/>
    <trip id="motorcycle227" type="motorcycle_motorcycle" depart="1345.63" departLane="best" from="581522780#2" to="-540537300#4"/>
    <trip id="motorcycle229" type="motorcycle_motorcycle" depart="1357.49" departLane="best" from="35845414#8" to="35845424#11"/>
    <trip id="motorcycle230" type="motorcycle_motorcycle" depart="1363.42" departLane="best" from="302363551#2" to="778590555#0"/>
    <trip id="motorcycle231" type="motorcycle_motorcycle" depart="1369.34" departLane="best" from="403846306#2" to="680134293#1"/>
    <trip id="motorcycle232" type="motorcycle_motorcycle" depart="1375.27" departLane="best" from="154493699#9" to="125578297#1"/>
    <trip id="motorcycle235" type="motorcycle_motorcycle" depart="1393.05" departLane="best" departSpeed="max" from="35846309#0" to="35843197#1"/>
    <trip id="motorcycle236" type="motorcycle_motorcycle" depart="1398.98" departLane="best" from="-154493699#4" to="-35844275#0"/>
    <trip id="motorcycle237" type="motorcycle_motorcycle" depart="1404.91" departLane="best" from="403846306#1" to="332458752#2"/>
    <trip id="motorcycle238" type="motorcycle_motorcycle" depart="1410.84" departLane="best" from="35845986#6" to="-35843193#3"/>
    <trip id="motorcycle239" type="motorcycle_motorcycle" depart="1416.77" departLane="best" from="299080520#3" to="-318298137#5"/>
    <trip id="motorcycle240" type="motorcycle_motorcycle" depart="1422.69" departLane="best" from="35844286#3" to="35845986#8"/>
    <trip id="motorcycle242" type="motorcycle_motorcycle" depart="1434.55" departLane="best" from="581522780#3" to="42941553#3"/>
    <trip id="motorcycle243" type="motorcycle_motorcycle" depart="1440.48" departLane="best" from="-377816342#1" to="-327947729#0"/>
    <trip id="motorcycle244" type="motorcycle_motorcycle" depart="1446.41" departLane="best" from="-35843019#4" to="540537300#4"/>
    <trip id="motorcycle245" type="motorcycle_motorcycle" depart="1452.33" departLane="best" from="581522780#2" to="-35845986#8"/>