<?xml version="1.0" encoding="UTF-8"?>

<!-- generated on 2023-07-13 18:17:45.278118 by osmWebWizard.py v1_18_0+0000-03ecfdea036
<configuration>
    <net-file value="C:\Users\Rustam Mattiev\2023-07-13-18-17-30\osm.net.xml.gz"/>
    <output-trip-file value="C:\Users\Rustam Mattiev\2023-07-13-18-17-30\osm.passenger.trips.xml"/>
    <route-file value="C:\Users\Rustam Mattiev\2023-07-13-18-17-30\osm.passenger.rou.xml"/>
    <prefix value="veh"/>
    <trip-attributes value="departLane=&quot;best&quot;"/>
    <fringe-start-attributes value="departSpeed=&quot;max&quot;"/>
    <vehicle-class value="passenger"/>
    <lanes value="True"/>
    <fringe-factor value="5"/>
    <allow-fringe.min-length value="1000.0"/>
    <via-edge-types value="highway.motorway,highway.motorway_link,highway.trunk_link,highway.primary_link,highway.secondary_link,highway.tertiary_link"/>
    <min-distance value="300.0"/>
    <min-distance.fringe value="10.0"/>
    <remove-loops value="True"/>
    <validate value="True"/>
    <insertion-density value="14.0"/>
</configuration>
-->

<!-- generated on 2023-07-13 18:17:45 by Eclipse SUMO duarouter Version 1.18.0
<configuration xmlns:xsi="http://www.w3.org/2001/XMLSchema-instance" xsi:noNamespaceSchemaLocation="http://sumo.dlr.de/xsd/duarouterConfiguration.xsd">

    <input>
        <net-file value="C:\Users\Rustam Mattiev\2023-07-13-18-17-30\osm.net.xml.gz"/>
        <route-files value="C:\Users\Rustam Mattiev\2023-07-13-18-17-30\osm.passenger.trips.xml"/>
    </input>

    <output>
        <output-file value="C:\Users\Rustam Mattiev\2023-07-13-18-17-30\osm.passenger.trips.xml.tmp"/>
        <alternatives-output value="NUL"/>
        <write-trips value="true"/>
    </output>

    <processing>
        <remove-loops value="true"/>
    </processing>

    <time>
        <begin value="0.0"/>
        <end value="3600.0"/>
    </time>

    <report>
        <no-warnings value="true"/>
        <ignore-errors value="true"/>
        <no-step-log value="true"/>
    </report>

</configuration>
-->

<routes xmlns:xsi="http://www.w3.org/2001/XMLSchema-instance" xsi:noNamespaceSchemaLocation="http://sumo.dlr.de/xsd/routes_file.xsd">
    <vType id="veh_passenger" vClass="passenger"/>
    <trip id="veh0" type="veh_passenger" depart="0.00" departLane="best" from="35844242#0" to="-133270574#6"/>
    <trip id="veh1" type="veh_passenger" depart="1.98" departLane="best" from="-35845427#1" to="35844834#2"/>
    <trip id="veh2" type="veh_passenger" depart="3.95" departLane="best" from="35845424#10" to="35844342#0"/>
    <trip id="veh3" type="veh_passenger" depart="5.93" departLane="best" departSpeed="max" from="42941552" to="-311690779"/>
    <trip id="veh4" type="veh_passenger" depart="7.91" departLane="best" from="-133057881#0" to="-133270574#9"/>
    <trip id="veh5" type="veh_passenger" depart="9.89" departLane="best" from="-35844342#2" to="311690780#3"/>
    <trip id="veh6" type="veh_passenger" depart="11.86" departLane="best" from="-133270574#10" to="35844342#0"/>
    <trip id="veh7" type="veh_passenger" depart="13.84" departLane="best" from="-35844275#9" to="318298137#6"/>
    <trip id="veh8" type="veh_passenger" depart="15.82" departLane="best" from="-35844342#5" to="345727221"/>
    <trip id="veh9" type="veh_passenger" depart="17.79" departLane="best" from="35846309#5" to="-125586592#0"/>
    <trip id="veh10" type="veh_passenger" depart="19.77" departLane="best" departSpeed="max" from="35846309#0" to="35844549#3"/>
    <trip id="veh12" type="veh_passenger" depart="23.73" departLane="best" departSpeed="max" from="573176749#1" to="-48049173#3"/>
    <trip id="veh13" type="veh_passenger" depart="25.70" departLane="best" from="-317264298#3" to="-318298137#5"/>
    <trip id="veh14" type="veh_passenger" depart="27.68" departLane="best" from="-369817110#0" to="35843020#0"/>
    <trip id="veh15" type="veh_passenger" depart="29.66" departLane="best" departSpeed="max" from="35846309#0" to="35845312#7"/>
    <trip id="veh16" type="veh_passenger" depart="31.63" departLane="best" from="312891127#3" to="-35843204#2"/>
    <trip id="veh17" type="veh_passenger" depart="33.61" departLane="best" from="591307587#1" to="327947729#0"/>
    <trip id="veh19" type="veh_passenger" depart="37.57" departLane="best" from="371237121#3" to="337515390#3"/>
    <trip id="veh20" type="veh_passenger" depart="39.54" departLane="best" from="-35844834#7" to="-134120211#0"/>
    <trip id="veh21" type="veh_passenger" depart="41.52" departLane="best" from="-35844519#0" to="-35846309#0"/>
    <trip id="veh22" type="veh_passenger" depart="43.50" departLane="best" from="-302363668#0" to="35845414#3"/>
    <trip id="veh24" type="veh_passenger" depart="47.45" departLane="best" from="-35843204#1" to="-591307587#0"/>
    <trip id="veh25" type="veh_passenger" depart="49.43" departLane="best" from="540537300#4" to="35844519#1"/>
    <trip id="veh26" type="veh_passenger" depart="51.40" departLane="best" from="-35844275#6" to="35843020#4"/>
    <trip id="veh27" type="veh_passenger" depart="53.38" departLane="best" departSpeed="max" from="-35843197#2" to="35845312#7"/>
    <trip id="veh29" type="veh_passenger" depart="57.34" departLane="best" from="778590555#0" to="-35844242#1"/>
    <trip id="veh30" type="veh_passenger" depart="59.31" departLane="best" from="364719378#1" to="-35845986#2"/>
    <trip id="veh31" type="veh_passenger" depart="61.29" departLane="best" from="-35844519#2" to="-133270585#12"/>
    <trip id="veh33" type="veh_passenger" depart="65.24" departLane="best" from="-35844329#0" to="-145659797#1"/>
    <trip id="veh34" type="veh_passenger" depart="67.22" departLane="best" from="42941539#2" to="-371237121#2"/>
    <trip id="veh36" type="veh_passenger" depart="71.18" departLane="best" from="42941553#3" to="201662464#2"/>
    <trip id="veh37" type="veh_passenger" depart="73.15" departLane="best" from="-35845424#13" to="-35845424#5"/>
    <trip id="veh38" type="veh_passenger" depart="75.13" departLane="best" from="-318298137#2" to="-35845973#0"/>
    <trip id="veh39" type="veh_passenger" depart="77.11" departLane="best" from="-328640015#1" to="42941553#11"/>
    <trip id="veh40" type="veh_passenger" depart="79.08" departLane="best" from="-778590557#5" to="-35844834#11"/>
    <trip id="veh41" type="veh_passenger" depart="81.06" departLane="best" from="987593666#1" to="311690780#6"/>
    <trip id="veh42" type="veh_passenger" depart="83.04" departLane="best" from="-314608192#1" to="-134120212"/>
    <trip id="veh43" type="veh_passenger" depart="85.02" departLane="best" from="327947729#7" to="-35843193#7"/>
    <trip id="veh44" type="veh_passenger" depart="86.99" departLane="best" from="35846218#3" to="133270574#11"/>
    <trip id="veh45" type="veh_passenger" depart="88.97" departLane="best" from="184464789" to="-740661097#4"/>
    <trip id="veh47" type="veh_passenger" depart="92.92" departLane="best" from="694707003#0" to="-371237121#3"/>
    <trip id="veh48" type="veh_passenger" depart="94.90" departLane="best" departSpeed="max" from="-125578297#6" to="35845312#17"/>
    <trip id="veh49" type="veh_passenger" depart="96.88" departLane="best" from="-35844500#1" to="314608192#1"/>
    <trip id="veh50" type="veh_passenger" depart="98.86" departLane="best" from="35845424#2" to="35844256"/>
    <trip id="veh51" type="veh_passenger" depart="100.83" departLane="best" from="-328021283#1" to="-133270585#14"/>
    <trip id="veh52" type="veh_passenger" depart="102.81" departLane="best" departSpeed="max" from="134120210" to="-540537300#3"/>
    <trip id="veh53" type="veh_passenger" depart="104.79" departLane="best" from="42941539#2" to="-35845973#0"/>
    <trip id="veh54" type="veh_passenger" depart="106.76" departLane="best" from="-302363668#2" to="-35844286#3"/>
    <trip id="veh58" type="veh_passenger" depart="114.67" departLane="best" from="35845973#3" to="317264298#3"/>
    <trip id="veh61" type="veh_passenger" depart="120.60" departLane="best" from="128565511" to="42941553#7"/>
    <trip id="veh63" type="veh_passenger" depart="124.56" departLane="best" from="35846309#1" to="-154927649#1"/>
    <trip id="veh64" type="veh_passenger" depart="126.53" departLane="best" from="42941539#3" to="-540537300#10"/>
    <trip id="veh65" type="veh_passenger" depart="128.51" departLane="best" from="-310909556#1" to="-302363551#4"/>
    <trip id="veh66" type="veh_passenger" depart="130.49" departLane="best" from="-266073637#1" to="35845495#3"/>
    <trip id="veh67" type="veh_passenger" depart="132.47" departLane="best" departSpeed="max" from="35845986#0" to="-349757784#0"/>
    <trip id="veh68" type="veh_passenger" depart="134.44" departLane="best" from="-154493699#9" to="327288963#1"/>
    <trip id="veh69" type="veh_passenger" depart="136.42" departLane="best" from="-35845424#13" to="42941539#2"/>
    <trip id="veh70" type="veh_passenger" depart="138.40" departLane="best" from="-133057881#1" to="-35844535#1"/>
    <trip id="veh71" type="veh_passenger" depart="140.37" departLane="best" from="312891127#6" to="35845312#8"/>
    <trip id="veh72" type="veh_passenger" depart="142.35" departLane="best" from="-35844298#0" to="-371237121#2"/>
    <trip id="veh73" type="veh_passenger" depart="144.33" departLane="best" from="778590557#4" to="35844275#9"/>
    <trip id="veh75" type="veh_passenger" depart="148.28" departLane="best" from="-332458752#3" to="35844834#4"/>
    <trip id="veh76" type="veh_passenger" depart="150.26" departLane="best" from="371237121#5" to="345727211#1"/>
    <trip id="veh77" type="veh_passenger" depart="152.24" departLane="best" from="-35844519#4" to="35844834#12"/>
    <trip id="veh78" type="veh_passenger" depart="154.21" departLane="best" from="-291492642#0" to="35843197#2"/>
    <trip id="veh79" type="veh_passenger" depart="156.19" departLane="best" from="-35844519#2" to="42941553#15"/>
    <trip id="veh80" type="veh_passenger" depart="158.17" departLane="best" departSpeed="max" from="371237121#0" to="291492642#1"/>
    <trip id="veh81" type="veh_passenger" depart="160.15" departLane="best" from="-35844834#10" to="-35844324#2"/>
    <trip id="veh82" type="veh_passenger" depart="162.12" departLane="best" departSpeed="max" from="-35844329#2" to="349757784#5"/>
    <trip id="veh83" type="veh_passenger" depart="164.10" departLane="best" from="525700449" to="332458752#5"/>
    <trip id="veh84" type="veh_passenger" depart="166.08" departLane="best" from="154493699#4" to="35846212#1"/>
    <trip id="veh85" type="veh_passenger" depart="168.05" departLane="best" from="35846309#1" to="35844307#1"/>
    <trip id="veh86" type="veh_passenger" depart="170.03" departLane="best" from="318298137#4" to="-133270585#11"/>
    <trip id="veh88" type="veh_passenger" depart="173.99" departLane="best" from="35845414#1" to="35844329#2"/>
    <trip id="veh89" type="veh_passenger" depart="175.96" departLane="best" from="756582327#0" to="-318298137#8"/>
    <trip id="veh90" type="veh_passenger" depart="177.94" departLane="best" from="1124220433#0" to="-48049173#6"/>
    <trip id="veh91" type="veh_passenger" depart="179.92" departLane="best" from="371237121#3" to="35845424#8"/>
    <trip id="veh92" type="veh_passenger" depart="181.89" departLane="best" from="-35844275#8" to="154493699#1"/>
    <trip id="veh93" type="veh_passenger" depart="183.87" departLane="best" from="-133057881#0" to="-35845986#3"/>
    <trip id="veh95" type="veh_passenger" depart="187.83" departLane="best" from="-133270585#16" to="371237121#4"/>
    <trip id="veh96" type="veh_passenger" depart="189.80" departLane="best" from="314579016#0" to="-154493699#0"/>
    <trip id="veh98" type="veh_passenger" depart="193.76" departLane="best" from="679893524#6" to="42941553#5"/>
    <trip id="veh99" type="veh_passenger" depart="195.73" departLane="best" from="-369817110#2" to="-35844256"/>
    <trip id="veh100" type="veh_passenger" depart="197.71" departLane="best" from="-266073637#0" to="-35844547"/>
    <trip id="veh101" type="veh_passenger" depart="199.69" departLane="best" from="-987593666#0" to="-154927649#2"/>
    <trip id="veh102" type="veh_passenger" depart="201.66" departLane="best" from="591307587#2" to="756582327#1"/>
    <trip id="veh103" type="veh_passenger" depart="203.64" departLane="best" from="35845424#13" to="35846212#1"/>
    <trip id="veh104" type="veh_passenger" depart="205.62" departLane="best" from="134120211#1" to="133270574#2"/>
    <trip id="veh105" type="veh_passenger" depart="207.60" departLane="best" departSpeed="max" from="573176749#1" to="778590557#5"/>
    <trip id="veh106" type="veh_passenger" depart="209.57" departLane="best" from="-314608192#0" to="35845312#14"/>
    <trip id="veh108" type="veh_passenger" depart="213.53" departLane="best" from="-679893524#5" to="337515390#4"/>
    <trip id="veh109" type="veh_passenger" depart="215.50" departLane="best" departSpeed="max" from="312891129#0" to="-35845424#2"/>
    <trip id="veh110" type="veh_passenger" depart="217.48" departLane="best" from="-154493699#2" to="337515390#5"/>
    <trip id="veh111" type="veh_passenger" depart="219.46" departLane="best" from="-302363668#5" to="369817110#5"/>
    <trip id="veh113" type="veh_passenger" depart="223.41" departLane="best" from="-302363668#1" to="-35844298#0"/>
    <trip id="veh115" type="veh_passenger" depart="227.37" departLane="best" from="-35844549#2" to="332458752#3"/>
    <trip id="veh116" type="veh_passenger" depart="229.34" departLane="best" departSpeed="max" from="42941552" to="-35845424#5"/>
    <trip id="veh118" type="veh_passenger" depart="233.30" departLane="best" from="-126815762#2" to="337515390#5"/>
    <trip id="veh120" type="veh_passenger" depart="237.25" departLane="best" from="-35844302#0" to="35845312#11"/>
    <trip id="veh124" type="veh_passenger" depart="245.16" departLane="best" from="-291492642#1" to="201662464#1"/>
    <trip id="veh125" type="veh_passenger" depart="247.14" departLane="best" from="1124220433#2" to="-984872684"/>
    <trip id="veh126" type="veh_passenger" depart="249.12" departLane="best" from="-299080520#0" to="-35844537#1"/>
    <trip id="veh127" type="veh_passenger" depart="251.09" departLane="best" from="-35845424#13" to="-48049173#1"/>
    <trip id="veh128" type="veh_passenger" depart="253.07" departLane="best" from="42941539#5" to="42941539#5"/>
    <trip id="veh129" type="veh_passenger" depart="255.05" departLane="best" from="540537300#3" to="-35843193#4"/>
    <trip id="veh131" type="veh_passenger" depart="259.00" departLane="best" from="35843020#1" to="756582327#2"/>
    <trip id="veh132" type="veh_passenger" depart="260.98" departLane="best" from="35844291#0" to="-125586592#0"/>
    <trip id="veh134" type="veh_passenger" depart="264.93" departLane="best" from="35844302#1" to="-48049173#6"/>
    <trip id="veh135" type="veh_passenger" depart="266.91" departLane="best" from="-35845424#8" to="35843020#0"/>
    <trip id="veh136" type="veh_passenger" depart="268.89" departLane="best" from="35845312#17" to="-35844500#0"/>
    <trip id="veh137" type="veh_passenger" depart="270.86" departLane="best" from="-35843197#0" to="-35845973#1"/>
    <trip id="veh139" type="veh_passenger" depart="274.82" departLane="best" from="-133057881#1" to="-35845986#20"/>
    <trip id="veh141" type="veh_passenger" depart="278.77" departLane="best" from="35843204#3" to="-35845973#0"/>
    <trip id="veh142" type="veh_passenger" depart="280.75" departLane="best" from="35845424#2" to="327947724"/>
    <trip id="veh143" type="veh_passenger" depart="282.73" departLane="best" from="-133270574#1" to="-125586592#1"/>
    <trip id="veh144" type="veh_passenger" depart="284.70" departLane="best" from="-299080520#3" to="42941539#6"/>
    <trip id="veh147" type="veh_passenger" depart="290.63" departLane="best" from="-35843020#2" to="-347948450#3"/>
    <trip id="veh148" type="veh_passenger" depart="292.61" departLane="best" from="35846309#3" to="42941553#12"/>
    <trip id="veh149" type="veh_passenger" depart="294.59" departLane="best" from="35846218#6" to="371237121#3"/>
    <trip id="veh150" type="veh_passenger" depart="296.57" departLane="best" from="42941553#11" to="35844519#2"/>
    <trip id="veh152" type="veh_passenger" depart="300.52" departLane="best" from="345550635#0" to="42941539#6"/>
    <trip id="veh154" type="veh_passenger" depart="304.47" departLane="best" from="-35843043#3" to="42941553#7"/>
    <trip id="veh155" type="veh_passenger" depart="306.45" departLane="best" from="371237121#5" to="739572904#0"/>
    <trip id="veh157" type="veh_passenger" depart="310.41" departLane="best" from="-369817111#0" to="-48049173#0"/>
    <trip id="veh158" type="veh_passenger" depart="312.38" departLane="best" from="-35846230#4" to="371237121#6"/>
    <trip id="veh160" type="veh_passenger" depart="316.34" departLane="best" from="35846218#0" to="-327947729#0"/>
    <trip id="veh161" type="veh_passenger" depart="318.31" departLane="best" from="416593366" to="-371237121#10"/>
    <trip id="veh163" type="veh_passenger" depart="322.27" departLane="best" departSpeed="max" from="139893010" to="369817110#3"/>
    <trip id="veh164" type="veh_passenger" depart="324.25" departLane="best" from="35846218#6" to="35844834#9"/>
    <trip id="veh165" type="veh_passenger" depart="326.22" departLane="best" from="-133057881#2" to="-35844324#0"/>
    <trip id="veh166" type="veh_passenger" depart="328.20" departLane="best" from="-369817110#7" to="371237121#6"/>
    <trip id="veh167" type="veh_passenger" depart="330.18" departLane="best" from="-679893524#3" to="-35845986#4"/>
    <trip id="veh168" type="veh_passenger" depart="332.15" departLane="best" from="35844262#0" to="125578297#0"/>
    <trip id="veh170" type="veh_passenger" depart="336.11" departLane="best" from="540537300#10" to="-328234209"/>
    <trip id="veh171" type="veh_passenger" depart="338.09" departLane="best" from="-679893524#8" to="-35844286#3"/>
    <trip id="veh172" type="veh_passenger" depart="340.06" departLane="best" from="591307587#1" to="-35845973#4"/>
    <trip id="veh173" type="veh_passenger" depart="342.04" departLane="best" from="-327947729#5" to="-133270585#14"/>
    <trip id="veh174" type="veh_passenger" depart="344.02" departLane="best" from="-35845414#1" to="-371237121#2"/>
    <trip id="veh175" type="veh_passenger" depart="345.99" departLane="best" from="35843019#1" to="311690780#7"/>
    <trip id="veh176" type="veh_passenger" depart="347.97" departLane="best" from="-679893524#6" to="337515390#1"/>
    <trip id="veh177" type="veh_passenger" depart="349.95" departLane="best" from="-35845414#2" to="35844834#9"/>
    <trip id="veh179" type="veh_passenger" depart="353.90" departLane="best" from="312891127#5" to="35845312#15"/>
    <trip id="veh180" type="veh_passenger" depart="355.88" departLane="best" from="35845424#2" to="35844329#1"/>
    <trip id="veh181" type="veh_passenger" depart="357.86" departLane="best" from="-540537300#11" to="291492642#0"/>
    <trip id="veh182" type="veh_passenger" depart="359.83" departLane="best" from="35844307#0" to="-48049173#0"/>
    <trip id="veh185" type="veh_passenger" depart="365.76" departLane="best" from="35846309#5" to="125578297#6"/>
    <trip id="veh187" type="veh_passenger" depart="369.72" departLane="best" from="333378696#0" to="133270574#10"/>
    <trip id="veh188" type="veh_passenger" depart="371.70" departLane="best" from="540537300#11" to="35844342#1"/>
    <trip id="veh190" type="veh_passenger" depart="375.65" departLane="best" from="35845986#7" to="-327288962#0"/>
    <trip id="veh192" type="veh_passenger" depart="379.60" departLane="best" from="133270574#11" to="337515390#5"/>
    <trip id="veh194" type="veh_passenger" depart="383.56" departLane="best" from="133270585#13" to="-35844537#1"/>
    <trip id="veh195" type="veh_passenger" depart="385.54" departLane="best" from="-154493699#5" to="42941553#13"/>
    <trip id="veh196" type="veh_passenger" depart="387.51" departLane="best" from="35846218#6" to="35844275#10"/>
    <trip id="veh198" type="veh_passenger" depart="391.47" departLane="best" from="35843193#6" to="-48049173#2"/>
    <trip id="veh200" type="veh_passenger" depart="395.42" departLane="best" from="-35844342#0" to="35844834#4"/>
    <trip id="veh201" type="veh_passenger" depart="397.40" departLane="best" from="35844293#1" to="-133270574#5"/>
    <trip id="veh203" type="veh_passenger" depart="401.35" departLane="best" from="-369817110#3" to="-299080520#1"/>
    <trip id="veh204" type="veh_passenger" depart="403.33" departLane="best" from="125586592#1" to="35843197#2"/>
    <trip id="veh205" type="veh_passenger" depart="405.31" departLane="best" from="-35844286#4" to="35844549#1"/>
    <trip id="veh206" type="veh_passenger" depart="407.28" departLane="best" from="-299080520#3" to="-35845424#2"/>
    <trip id="veh207" type="veh_passenger" depart="409.26" departLane="best" from="35844291#3" to="125578297#4"/>
    <trip id="veh208" type="veh_passenger" depart="411.24" departLane="best" from="-35845495#2" to="-35845973#5"/>
    <trip id="veh209" type="veh_passenger" depart="413.22" departLane="best" from="-327947729#2" to="133270574#5"/>
    <trip id="veh210" type="veh_passenger" depart="415.19" departLane="best" from="-35843378" to="-540537300#6"/>
    <trip id="veh213" type="veh_passenger" depart="421.12" departLane="best" departSpeed="max" from="139893010" to="35846230#0"/>
    <trip id="veh214" type="veh_passenger" depart="423.10" departLane="best" from="35844324#0" to="756582327#2"/>
    <trip id="veh216" type="veh_passenger" depart="427.05" departLane="best" departSpeed="max" from="42941552" to="35843043#3"/>
    <trip id="veh217" type="veh_passenger" depart="429.03" departLane="best" from="35845312#2" to="311690780#3"/>
    <trip id="veh219" type="veh_passenger" depart="432.99" departLane="best" from="42941553#10" to="-35845424#11"/>
    <trip id="veh220" type="veh_passenger" depart="434.96" departLane="best" from="-154493699#7" to="35845967#3"/>
    <trip id="veh224" type="veh_passenger" depart="442.87" departLane="best" from="302363551#3" to="35846230#5"/>
    <trip id="veh225" type="veh_passenger" depart="444.85" departLane="best" from="-35845424#8" to="-371237121#4"/>
    <trip id="veh226" type="veh_passenger" depart="446.83" departLane="best" from="312891127#6" to="35843020#0"/>
    <trip id="veh228" type="veh_passenger" depart="450.78" departLane="best" from="-125578297#0" to="318298137#3"/>
    <trip id="veh229" type="veh_passenger" depart="452.76" departLane="best" departSpeed="max" from="-126815762#0" to="-35844512#3"/>
    <trip id="veh230" type="veh_passenger" depart="454.73" departLane="best" from="126815763" to="42941553#15"/>
    <trip id="veh231" type="veh_passenger" depart="456.71" departLane="best" from="328640015#0" to="35844547"/>
    <trip id="veh232" type="veh_passenger" depart="458.69" departLane="best" departSpeed="max" from="371237121#0" to="35845967#3"/>
    <trip id="veh233" type="veh_passenger" depart="460.67" departLane="best" from="591307587#4" to="125578297#4"/>
    <trip id="veh234" type="veh_passenger" depart="462.64" departLane="best" from="48049173#2" to="35845424#9"/>
    <trip id="veh235" type="veh_passenger" depart="464.62" departLane="best" departSpeed="max" from="371237121#0" to="540537300#3"/>
    <trip id="veh236" type="veh_passenger" depart="466.60" departLane="best" from="-126815762#2" to="-35845424#2"/>
    <trip id="veh237" type="veh_passenger" depart="468.57" departLane="best" departSpeed="max" from="312891129#0" to="35843019#6"/>
    <trip id="veh238" type="veh_passenger" depart="470.55" departLane="best" from="-35844342#5" to="35844834#11"/>
    <trip id="veh239" type="veh_passenger" depart="472.53" departLane="best" from="371237121#4" to="35844342#5"/>
    <trip id="veh240" type="veh_passenger" depart="474.51" departLane="best" from="1124220434" to="-35844242#0"/>
    <trip id="veh241" type="veh_passenger" depart="476.48" departLane="best" from="145659797#0" to="-347948450#3"/>
    <trip id="veh243" type="veh_passenger" depart="480.44" departLane="best" from="-778590555#2" to="328640015#2"/>
    <trip id="veh244" type="veh_passenger" depart="482.41" departLane="best" from="-133270574#10" to="35844275#0"/>
    <trip id="veh246" type="veh_passenger" depart="486.37" departLane="best" from="134120211#1" to="-740661097#1"/>
    <trip id="veh247" type="veh_passenger" depart="488.35" departLane="best" from="-35844329#1" to="-375032691"/>
    <trip id="veh248" type="veh_passenger" depart="490.32" departLane="best" from="35845973#1" to="-740661097#1"/>
    <trip id="veh250" type="veh_passenger" depart="494.28" departLane="best" departSpeed="max" from="-35845360" to="302363668#4"/>
    <trip id="veh251" type="veh_passenger" depart="496.25" departLane="best" from="128565511" to="317264298#3"/>
    <trip id="veh252" type="veh_passenger" depart="498.23" departLane="best" from="995279134" to="-540537300#13"/>
    <trip id="veh253" type="veh_passenger" depart="500.21" departLane="best" from="35844275#9" to="35845986#7"/>
    <trip id="veh254" type="veh_passenger" depart="502.18" departLane="best" from="35844286#2" to="-35845424#9"/>
    <trip id="veh255" type="veh_passenger" depart="504.16" departLane="best" from="540537300#5" to="35844342#1"/>
    <trip id="veh257" type="veh_passenger" depart="508.12" departLane="best" from="332458753" to="35844329#0"/>
    <trip id="veh258" type="veh_passenger" depart="510.09" departLane="best" from="318298137#6" to="35844834#1"/>
    <trip id="veh259" type="veh_passenger" depart="512.07" departLane="best" from="-35844834#14" to="35845973#1"/>
    <trip id="veh260" type="veh_passenger" depart="514.05" departLane="best" from="35843193#7" to="35843020#2"/>
    <trip id="veh261" type="veh_passenger" depart="516.02" departLane="best" from="35845424#9" to="-328021285#1"/>
    <trip id="veh263" type="veh_passenger" depart="519.98" departLane="best" from="-327947729#5" to="-133270574#6"/>
    <trip id="veh266" type="veh_passenger" depart="525.91" departLane="best" from="35845312#14" to="-302363551#2"/>
    <trip id="veh267" type="veh_passenger" depart="527.89" departLane="best" from="-327288962#1" to="35845986#14"/>
    <trip id="veh268" type="veh_passenger" depart="529.86" departLane="best" from="-369817110#4" to="35843019#2"/>
    <trip id="veh269" type="veh_passenger" depart="531.84" departLane="best" from="-332458752#3" to="756582322"/>
    <trip id="veh270" type="veh_passenger" depart="533.82" departLane="best" from="35846212#1" to="-540537300#11"/>
    <trip id="veh271" type="veh_passenger" depart="535.80" departLane="best" from="133270574#10" to="-679893524#0"/>
    <trip id="veh272" type="veh_passenger" depart="537.77" departLane="best" from="310909556#3" to="-48049173#9"/>
    <trip id="veh274" type="veh_passenger" depart="541.73" departLane="best" from="-327947729#0" to="-540537300#8"/>
    <trip id="veh277" type="veh_passenger" depart="547.66" departLane="best" from="35845414#8" to="-679893524#0"/>
    <trip id="veh278" type="veh_passenger" depart="549.64" departLane="best" from="35845424#5" to="35846309#5"/>
    <trip id="veh279" type="veh_passenger" depart="551.61" departLane="best" from="312891127#5" to="299080520#4"/>
    <trip id="veh280" type="veh_passenger" depart="553.59" departLane="best" from="-133270574#7" to="35845312#8"/>
    <trip id="veh281" type="veh_passenger" depart="555.57" departLane="best" from="35845424#3" to="369817110#4"/>
    <trip id="veh284" type="veh_passenger" depart="561.50" departLane="best" departSpeed="max" from="139893010" to="35843043#0"/>
    <trip id="veh285" type="veh_passenger" depart="563.48" departLane="best" from="591307587#2" to="133270574#8"/>
    <trip id="veh286" type="veh_passenger" depart="565.45" departLane="best" from="369817110#5" to="-35844291#3"/>
    <trip id="veh287" type="veh_passenger" depart="567.43" departLane="best" departSpeed="max" from="-35844329#2" to="35846218#6"/>
    <trip id="veh288" type="veh_passenger" depart="569.41" departLane="best" from="371237121#8" to="42941539#5"/>
    <trip id="veh289" type="veh_passenger" depart="571.38" departLane="best" from="-35844834#16" to="-35845986#20"/>
    <trip id="veh290" type="veh_passenger" depart="573.36" departLane="best" departSpeed="max" from="-125578297#6" to="-540537300#11"/>
    <trip id="veh291" type="veh_passenger" depart="575.34" departLane="best" from="-310909556#1" to="35845312#15"/>
    <trip id="veh293" type="veh_passenger" depart="579.29" departLane="best" from="-291492642#0" to="35846218#2"/>
    <trip id="veh294" type="veh_passenger" depart="581.27" departLane="best" from="-317264298#4" to="35844834#14"/>
    <trip id="veh295" type="veh_passenger" depart="583.25" departLane="best" from="35844547" to="369817110#4"/>
    <trip id="veh297" type="veh_passenger" depart="587.20" departLane="best" from="312891127#11" to="133270574#6"/>
    <trip id="veh298" type="veh_passenger" depart="589.18" departLane="best" from="-35845424#6" to="-48049173#0"/>
    <trip id="veh299" type="veh_passenger" depart="591.15" departLane="best" from="-35844834#4" to="-35845986#12"/>
    <trip id="veh300" type="veh_passenger" depart="593.13" departLane="best" from="-35844286#1" to="-332458752#2"/>
    <trip id="veh301" type="veh_passenger" depart="595.11" departLane="best" from="312891127#3" to="35845516"/>
    <trip id="veh302" type="veh_passenger" depart="597.09" departLane="best" from="-35844275#10" to="-35844549#2"/>
    <trip id="veh303" type="veh_passenger" depart="599.06" departLane="best" departSpeed="max" from="219362284" to="35845312#4"/>
    <trip id="veh305" type="veh_passenger" depart="603.02" departLane="best" departSpeed="max" from="-35845516" to="-327212723#0"/>
    <trip id="veh306" type="veh_passenger" depart="604.99" departLane="best" from="-35844286#3" to="35844834#9"/>
    <trip id="veh308" type="veh_passenger" depart="608.95" departLane="best" from="312891127#13" to="-35845986#17"/>
    <trip id="veh309" type="veh_passenger" depart="610.93" departLane="best" from="737281059#2" to="327947729#2"/>