<?xml version="1.0" encoding="UTF-8"?>

<!-- generated on 2023-07-17 22:17:53.706503 by osmWebWizard.py v1_18_0+0000-03ecfdea036
<configuration>
    <net-file value="C:\Users\Rustam Mattiev\2023-07-17-22-17-41\osm.net.xml.gz"/>
    <output-trip-file value="C:\Users\Rustam Mattiev\2023-07-17-22-17-41\osm.passenger.trips.xml"/>
    <route-file value="C:\Users\Rustam Mattiev\2023-07-17-22-17-41\osm.passenger.rou.xml"/>
    <prefix value="veh"/>
    <trip-attributes value="departLane=&quot;best&quot;"/>
    <fringe-start-attributes value="departSpeed=&quot;max&quot;"/>
    <vehicle-class value="passenger"/>
    <lanes value="True"/>
    <fringe-factor value="5"/>
    <allow-fringe.min-length value="1000.0"/>
    <via-edge-types value="highway.motorway,highway.motorway_link,highway.trunk_link,highway.primary_link,highway.secondary_link,highway.tertiary_link"/>
    <min-distance value="300.0"/>
    <min-distance.fringe value="10.0"/>
    <remove-loops value="True"/>
    <validate value="True"/>
    <insertion-density value="12.0"/>
</configuration>
-->

<!-- generated on 2023-07-17 22:17:53 by Eclipse SUMO duarouter Version 1.18.0
<configuration xmlns:xsi="http://www.w3.org/2001/XMLSchema-instance" xsi:noNamespaceSchemaLocation="http://sumo.dlr.de/xsd/duarouterConfiguration.xsd">

    <input>
        <net-file value="C:\Users\Rustam Mattiev\2023-07-17-22-17-41\osm.net.xml.gz"/>
        <route-files value="C:\Users\Rustam Mattiev\2023-07-17-22-17-41\osm.passenger.trips.xml"/>
    </input>

    <output>
        <output-file value="C:\Users\Rustam Mattiev\2023-07-17-22-17-41\osm.passenger.trips.xml.tmp"/>
        <alternatives-output value="NUL"/>
        <write-trips value="true"/>
    </output>

    <processing>
        <remove-loops value="true"/>
    </processing>

    <time>
        <begin value="0.0"/>
        <end value="3600.0"/>
    </time>

    <report>
        <no-warnings value="true"/>
        <ignore-errors value="true"/>
        <no-step-log value="true"/>
    </report>

</configuration>
-->

<routes xmlns:xsi="http://www.w3.org/2001/XMLSchema-instance" xsi:noNamespaceSchemaLocation="http://sumo.dlr.de/xsd/routes_file.xsd">
    <vType id="veh_passenger" vClass="passenger"/>
    <trip id="veh0" type="veh_passenger" depart="0.00" departLane="best" from="35843791#3" to="133270574#10"/>
    <trip id="veh1" type="veh_passenger" depart="1.27" departLane="best" departSpeed="max" from="-35846327#3" to="-35844884#2"/>
    <trip id="veh2" type="veh_passenger" depart="2.55" departLane="best" from="35844878#1" to="35844251#2"/>
    <trip id="veh3" type="veh_passenger" depart="3.82" departLane="best" from="371237121#9" to="-349757784#5"/>
    <trip id="veh4" type="veh_passenger" depart="5.10" departLane="best" from="-98695614#1" to="133270574#8"/>
    <trip id="veh5" type="veh_passenger" depart="6.37" departLane="best" from="-35844703" to="271759713#1"/>
    <trip id="veh6" type="veh_passenger" depart="7.65" departLane="best" from="-125578297#4" to="-35844708#3"/>
    <trip id="veh7" type="veh_passenger" depart="8.92" departLane="best" from="-35843825#0" to="272759163"/>
    <trip id="veh8" type="veh_passenger" depart="10.20" departLane="best" from="35844713#2" to="35843019#5"/>
    <trip id="veh9" type="veh_passenger" depart="11.47" departLane="best" departSpeed="max" from="35846554#0" to="111826712#0"/>
    <trip id="veh10" type="veh_passenger" depart="12.75" departLane="best" from="35846534#1" to="-35844608#0"/>
    <trip id="veh11" type="veh_passenger" depart="14.02" departLane="best" from="-35854178#3" to="-35843864#0"/>
    <trip id="veh13" type="veh_passenger" depart="16.57" departLane="best" from="35854172#2" to="35843202#6"/>
    <trip id="veh14" type="veh_passenger" depart="17.85" departLane="best" from="35846537#1" to="35844857#0"/>
    <trip id="veh15" type="veh_passenger" depart="19.12" departLane="best" from="271763338#6" to="696018381#1"/>
    <trip id="veh16" type="veh_passenger" depart="20.40" departLane="best" from="-540537300#11" to="272759165"/>
    <trip id="veh17" type="veh_passenger" depart="21.67" departLane="best" from="35853670" to="35843540#1"/>
    <trip id="veh20" type="veh_passenger" depart="25.50" departLane="best" departSpeed="max" from="-35844761#3" to="-35846590"/>
    <trip id="veh21" type="veh_passenger" depart="26.77" departLane="best" from="-302363668#7" to="-35845424#12"/>
    <trip id="veh22" type="veh_passenger" depart="28.05" departLane="best" from="-35842986#2" to="35846528#0"/>
    <trip id="veh23" type="veh_passenger" depart="29.32" departLane="best" from="35843779#1" to="540537300#4"/>
    <trip id="veh24" type="veh_passenger" depart="30.60" departLane="best" from="-48049173#0" to="-35844834#15"/>
    <trip id="veh25" type="veh_passenger" depart="31.87" departLane="best" from="-35845986#5" to="-48049173#7"/>
    <trip id="veh26" type="veh_passenger" depart="33.15" departLane="best" from="35843816#0" to="35843363"/>
    <trip id="veh27" type="veh_passenger" depart="34.42" departLane="best" from="-35843827#0" to="35844851"/>
    <trip id="veh28" type="veh_passenger" depart="35.70" departLane="best" from="-35843816#1" to="591307587#4"/>
    <trip id="veh29" type="veh_passenger" depart="36.97" departLane="best" from="756582327#1" to="35843800#0"/>
    <trip id="veh30" type="veh_passenger" depart="38.25" departLane="best" from="272759162#3" to="35844342#5"/>
    <trip id="veh31" type="veh_passenger" depart="39.52" departLane="best" from="-35853682#2" to="35846327#2"/>
    <trip id="veh32" type="veh_passenger" depart="40.80" departLane="best" departSpeed="max" from="-35844761#3" to="133270585#12"/>
    <trip id="veh33" type="veh_passenger" depart="42.07" departLane="best" from="-35853664#0" to="-35846408#0"/>
    <trip id="veh34" type="veh_passenger" depart="43.35" departLane="best" from="-35844634#1" to="540537300#14"/>
    <trip id="veh35" type="veh_passenger" depart="44.62" departLane="best" departSpeed="max" from="364196710#0" to="35853682#3"/>
    <trip id="veh36" type="veh_passenger" depart="45.90" departLane="best" from="-35843840#0" to="984246117#0"/>
    <trip id="veh37" type="veh_passenger" depart="47.17" departLane="best" departSpeed="max" from="42941553#0" to="134927682#4"/>
    <trip id="veh38" type="veh_passenger" depart="48.45" departLane="best" from="-35845986#20" to="-35845986#9"/>
    <trip id="veh39" type="veh_passenger" depart="49.72" departLane="best" departSpeed="max" from="272760667#0" to="-35846379#2"/>
    <trip id="veh40" type="veh_passenger" depart="51.00" departLane="best" departSpeed="max" from="327288963#0" to="405297835#2"/>
    <trip id="veh41" type="veh_passenger" depart="52.27" departLane="best" from="-591307588#1" to="-35844866#1"/>
    <trip id="veh42" type="veh_passenger" depart="53.55" departLane="best" from="984872684" to="271759715"/>
    <trip id="veh45" type="veh_passenger" depart="57.37" departLane="best" departSpeed="max" from="35846408#0" to="115281711#1"/>
    <trip id="veh46" type="veh_passenger" depart="58.65" departLane="best" from="-138288152#5" to="591307588#1"/>
    <trip id="veh47" type="veh_passenger" depart="59.92" departLane="best" from="-984246120#0" to="272745139"/>
    <trip id="veh48" type="veh_passenger" depart="61.20" departLane="best" departSpeed="max" from="683225675#0" to="35854172#6"/>
    <trip id="veh49" type="veh_passenger" depart="62.47" departLane="best" from="1113105620#0" to="35844761#3"/>
    <trip id="veh50" type="veh_passenger" depart="63.75" departLane="best" departSpeed="max" from="35844319" to="272747978#1"/>
    <trip id="veh51" type="veh_passenger" depart="65.02" departLane="best" from="-35845986#4" to="-35843804#0"/>
    <trip id="veh52" type="veh_passenger" depart="66.30" departLane="best" from="-35843196#0" to="125586592#6"/>
    <trip id="veh53" type="veh_passenger" depart="67.57" departLane="best" from="-133057881#2" to="569365958#4"/>
    <trip id="veh54" type="veh_passenger" depart="68.85" departLane="best" departSpeed="max" from="364196710#0" to="35846390#10"/>
    <trip id="veh55" type="veh_passenger" depart="70.12" departLane="best" departSpeed="max" from="271739792#0" to="35844592#1"/>
    <trip id="veh56" type="veh_passenger" depart="71.40" departLane="best" departSpeed="max" from="42941553#0" to="35854190"/>
    <trip id="veh57" type="veh_passenger" depart="72.67" departLane="best" from="-35846528#2" to="35843793#1"/>
    <trip id="veh58" type="veh_passenger" depart="73.95" departLane="best" from="-35843196#0" to="35843861#4"/>
    <trip id="veh59" type="veh_passenger" depart="75.22" departLane="best" from="35845424#8" to="272749262"/>
    <trip id="veh60" type="veh_passenger" depart="76.50" departLane="best" from="-35846343#6" to="272745139"/>
    <trip id="veh61" type="veh_passenger" depart="77.77" departLane="best" from="-108738532#0" to="-371237120#0"/>
    <trip id="veh62" type="veh_passenger" depart="79.05" departLane="best" from="-115580217#1" to="45638513#0"/>
    <trip id="veh63" type="veh_passenger" depart="80.32" departLane="best" from="-364201946#1" to="35853674#2"/>
    <trip id="veh64" type="veh_passenger" depart="81.60" departLane="best" from="-35846631#1" to="-172336086"/>
    <trip id="veh65" type="veh_passenger" depart="82.87" departLane="best" from="364196710#4" to="540537300#7"/>
    <trip id="veh66" type="veh_passenger" depart="84.15" departLane="best" from="-327947721#2" to="271741415#4"/>
    <trip id="veh67" type="veh_passenger" depart="85.42" departLane="best" from="-201662464#1" to="35845424#6"/>
    <trip id="veh68" type="veh_passenger" depart="86.70" departLane="best" from="-35845986#15" to="-35843791#2"/>
    <trip id="veh69" type="veh_passenger" depart="87.97" departLane="best" from="136382520#1" to="272759163"/>
    <trip id="veh70" type="veh_passenger" depart="89.25" departLane="best" from="-35845986#20" to="362229454#1"/>
    <trip id="veh71" type="veh_passenger" depart="90.52" departLane="best" departSpeed="max" from="-98695614#2" to="-35844834#7"/>
    <trip id="veh72" type="veh_passenger" depart="91.80" departLane="best" from="272745134#0" to="35844857#1"/>
    <trip id="veh73" type="veh_passenger" depart="93.07" departLane="best" from="-35844592#2" to="-35853680#0"/>
    <trip id="veh74" type="veh_passenger" depart="94.35" departLane="best" from="984246117#0" to="-35843814#5"/>
    <trip id="veh75" type="veh_passenger" depart="95.62" departLane="best" departSpeed="max" from="-35843358#1" to="35844894#0"/>
    <trip id="veh76" type="veh_passenger" depart="96.90" departLane="best" departSpeed="max" from="-35853682#6" to="-35843019#2"/>
    <trip id="veh77" type="veh_passenger" depart="98.17" departLane="best" from="-35844834#11" to="35844866#4"/>
    <trip id="veh78" type="veh_passenger" depart="99.45" departLane="best" departSpeed="max" from="-224826613" to="-35843773#2"/>
    <trip id="veh79" type="veh_passenger" depart="100.72" departLane="best" departSpeed="max" from="-35844761#3" to="42941539#3"/>
    <trip id="veh80" type="veh_passenger" depart="102.00" departLane="best" from="35854178#1" to="-311740851#1"/>
    <trip id="veh81" type="veh_passenger" depart="103.27" departLane="best" from="-35844857#2" to="35843861#13"/>
    <trip id="veh82" type="veh_passenger" depart="104.55" departLane="best" departSpeed="max" from="-35844679#1" to="-35843804#2"/>
    <trip id="veh83" type="veh_passenger" depart="105.82" departLane="best" from="-48049173#1" to="327947721#3"/>
    <trip id="veh84" type="veh_passenger" depart="107.10" departLane="best" from="-134927682#0" to="35846365#2"/>
    <trip id="veh85" type="veh_passenger" depart="108.37" departLane="best" from="35846542" to="-35844631#4"/>
    <trip id="veh86" type="veh_passenger" depart="109.65" departLane="best" from="349757782" to="125578297#4"/>
    <trip id="veh87" type="veh_passenger" depart="110.92" departLane="best" departSpeed="max" from="-98695614#2" to="-137370334#1"/>
    <trip id="veh88" type="veh_passenger" depart="112.20" departLane="best" departSpeed="max" from="35844843#0" to="35843868#1"/>
    <trip id="veh89" type="veh_passenger" depart="113.47" departLane="best" from="739572904#0" to="35843201#0"/>
    <trip id="veh92" type="veh_passenger" depart="117.30" departLane="best" departSpeed="max" from="-35844251#2" to="-133270574#6"/>
    <trip id="veh93" type="veh_passenger" depart="118.57" departLane="best" from="-98695614#1" to="35846528#2"/>
    <trip id="veh94" type="veh_passenger" depart="119.85" departLane="best" from="-35845414#2" to="42941553#8"/>
    <trip id="veh95" type="veh_passenger" depart="121.12" departLane="best" from="-115580219#1" to="35854172#6"/>
    <trip id="veh96" type="veh_passenger" depart="122.40" departLane="best" from="133057891#2" to="-140090319#0"/>
    <trip id="veh97" type="veh_passenger" depart="123.67" departLane="best" from="-988198555#2" to="35853675#12"/>
    <trip id="veh98" type="veh_passenger" depart="124.95" departLane="best" from="35854172#2-AddedOnRampEdge" to="-35844293#0"/>
    <trip id="veh99" type="veh_passenger" depart="126.22" departLane="best" from="138288152#5" to="-35844843#0"/>
    <trip id="veh100" type="veh_passenger" depart="127.50" departLane="best" from="-591307588#3" to="201662464#0"/>
    <trip id="veh101" type="veh_passenger" depart="128.77" departLane="best" from="-540537300#11" to="756582327#4"/>
    <trip id="veh102" type="veh_passenger" depart="130.05" departLane="best" from="-35845986#22" to="35846365#2"/>
    <trip id="veh103" type="veh_passenger" depart="131.32" departLane="best" from="272749262" to="115281718#0"/>
    <trip id="veh104" type="veh_passenger" depart="132.60" departLane="best" from="-581838991" to="984246121"/>
    <trip id="veh105" type="veh_passenger" depart="133.87" departLane="best" from="272759162#3" to="35844758#0"/>
    <trip id="veh106" type="veh_passenger" depart="135.15" departLane="best" from="35843804#2" to="-35853616#0"/>
    <trip id="veh108" type="veh_passenger" depart="137.70" departLane="best" from="272745139" to="35845312#3"/>
    <trip id="veh109" type="veh_passenger" depart="138.97" departLane="best" departSpeed="max" from="-137370334#2" to="349757784#0"/>
    <trip id="veh111" type="veh_passenger" depart="141.52" departLane="best" departSpeed="max" from="-35843809" to="591307588#0"/>
    <trip id="veh112" type="veh_passenger" depart="142.80" departLane="best" from="-302363668#8" to="-35844621#0"/>
    <trip id="veh114" type="veh_passenger" depart="145.35" departLane="best" from="-35844843#2" to="35843556#2"/>
    <trip id="veh115" type="veh_passenger" depart="146.62" departLane="best" from="371237121#5" to="35845986#8"/>
    <trip id="veh117" type="veh_passenger" depart="149.17" departLane="best" from="-984246118" to="-349757782"/>
    <trip id="veh118" type="veh_passenger" depart="150.45" departLane="best" from="271759715" to="-48049173#3"/>
    <trip id="veh119" type="veh_passenger" depart="151.72" departLane="best" from="-35844594#0" to="35844753#2"/>
    <trip id="veh120" type="veh_passenger" depart="153.00" departLane="best" from="-35844863#1" to="984246117#1"/>
    <trip id="veh122" type="veh_passenger" depart="155.55" departLane="best" from="-35853664#2" to="35845414#1"/>
    <trip id="veh123" type="veh_passenger" depart="156.82" departLane="best" from="-291492642#0" to="134927682#2"/>
    <trip id="veh124" type="veh_passenger" depart="158.10" departLane="best" from="-291492642#1" to="-35844843#0"/>
    <trip id="veh125" type="veh_passenger" depart="159.37" departLane="best" from="-35845986#22" to="-48049173#10"/>
    <trip id="veh126" type="veh_passenger" depart="160.65" departLane="best" from="371237120#5" to="366770406#1"/>
    <trip id="veh127" type="veh_passenger" depart="161.92" departLane="best" departSpeed="max" from="-45638513#2" to="35843868#0"/>
    <trip id="veh128" type="veh_passenger" depart="163.20" departLane="best" from="35853675#14" to="-35844648"/>
    <trip id="veh129" type="veh_passenger" depart="164.47" departLane="best" from="35843202#4" to="778590555#5"/>
    <trip id="veh130" type="veh_passenger" depart="165.75" departLane="best" from="-35843838#0" to="115281718#0"/>
    <trip id="veh131" type="veh_passenger" depart="167.02" departLane="best" from="-35846631#2" to="35853664#0"/>
    <trip id="veh132" type="veh_passenger" depart="168.30" departLane="best" from="35843861#2" to="-540537300#0"/>
    <trip id="veh133" type="veh_passenger" depart="169.57" departLane="best" departSpeed="max" from="-35843540#2" to="35843535#4"/>
    <trip id="veh134" type="veh_passenger" depart="170.85" departLane="best" from="-35843020#4" to="272759294#0"/>
    <trip id="veh135" type="veh_passenger" depart="172.12" departLane="best" departSpeed="max" from="-35846320#4" to="35843204#2"/>
    <trip id="veh136" type="veh_passenger" depart="173.40" departLane="best" from="35844742#1" to="-35844753#2"/>
    <trip id="veh137" type="veh_passenger" depart="174.67" departLane="best" from="-35843773#1" to="35846390#3"/>
    <trip id="veh138" type="veh_passenger" depart="175.95" departLane="best" departSpeed="max" from="141460115#0" to="42941539#3"/>
    <trip id="veh139" type="veh_passenger" depart="177.22" departLane="best" from="35854172#10" to="-35843020#0"/>
    <trip id="veh140" type="veh_passenger" depart="178.50" departLane="best" departSpeed="max" from="-98695614#2" to="-35846479#1"/>
    <trip id="veh141" type="veh_passenger" depart="179.77" departLane="best" from="-108738534#0" to="35845986#9"/>
    <trip id="veh142" type="veh_passenger" depart="181.05" departLane="best" from="35843788" to="35846379#0"/>
    <trip id="veh143" type="veh_passenger" depart="182.32" departLane="best" from="-35844894#4" to="272759165"/>
    <trip id="veh144" type="veh_passenger" depart="183.60" departLane="best" from="1037956969" to="-115281723"/>
    <trip id="veh145" type="veh_passenger" depart="184.87" departLane="best" from="-302363551#3" to="371237120#2"/>
    <trip id="veh148" type="veh_passenger" depart="188.70" departLane="best" from="-35846631#3" to="416593366"/>
    <trip id="veh149" type="veh_passenger" depart="189.97" departLane="best" departSpeed="max" from="35846421#0" to="35854172#6"/>
    <trip id="veh150" type="veh_passenger" depart="191.25" departLane="best" from="420049328#1" to="-35844834#2"/>
    <trip id="veh151" type="veh_passenger" depart="192.52" departLane="best" departSpeed="max" from="35846361#0" to="-371237120#4"/>
    <trip id="veh152" type="veh_passenger" depart="193.80" departLane="best" from="-713151825#0" to="35843542"/>
    <trip id="veh153" type="veh_passenger" depart="195.07" departLane="best" from="-35843804#1" to="45638513#2"/>
    <trip id="veh154" type="veh_passenger" depart="196.35" departLane="best" departSpeed="max" from="362197198" to="713775637"/>
    <trip id="veh155" type="veh_passenger" depart="197.62" departLane="best" departSpeed="max" from="35846554#0" to="366770406#1"/>
    <trip id="veh156" type="veh_passenger" depart="198.90" departLane="best" departSpeed="max" from="-115580219#2" to="35844884#5"/>
    <trip id="veh157" type="veh_passenger" depart="200.17" departLane="best" from="-35853680#1" to="45638513#2"/>
    <trip id="veh158" type="veh_passenger" depart="201.45" departLane="best" from="35846493#2" to="35854172#8"/>
    <trip id="veh159" type="veh_passenger" depart="202.72" departLane="best" departSpeed="max" from="35846554#0" to="-35846408#0"/>
    <trip id="veh160" type="veh_passenger" depart="204.00" departLane="best" from="35846379#1" to="-35843490"/>
    <trip id="veh161" type="veh_passenger" depart="205.27" departLane="best" from="362229454#1" to="35854172#4"/>
    <trip id="veh162" type="veh_passenger" depart="206.55" departLane="best" from="-35844742#2" to="35851564#2"/>
    <trip id="veh163" type="veh_passenger" depart="207.82" departLane="best" from="133270574#0" to="35853675#14"/>
    <trip id="veh164" type="veh_passenger" depart="209.10" departLane="best" departSpeed="max" from="35846421#0" to="35845414#1"/>
    <trip id="veh165" type="veh_passenger" depart="210.37" departLane="best" departSpeed="max" from="-115580219#2" to="-35844674#1"/>
    <trip id="veh166" type="veh_passenger" depart="211.65" departLane="best" departSpeed="max" from="-35853675#24" to="35854172#8"/>
    <trip id="veh167" type="veh_passenger" depart="212.92" departLane="best" from="601812411" to="35846528#3"/>
    <trip id="veh168" type="veh_passenger" depart="214.20" departLane="best" from="-35843800#0" to="-988198555#1"/>
    <trip id="veh169" type="veh_passenger" depart="215.47" departLane="best" from="-713151825#4" to="272745145"/>
    <trip id="veh170" type="veh_passenger" depart="216.75" departLane="best" from="-48049173#7" to="35843535#4"/>
    <trip id="veh171" type="veh_passenger" depart="218.02" departLane="best" departSpeed="max" from="683225675#0" to="35844592#1"/>
    <trip id="veh172" type="veh_passenger" depart="219.30" departLane="best" from="-591307587#6" to="35846390#7"/>
    <trip id="veh173" type="veh_passenger" depart="220.57" departLane="best" from="-35843043#3" to="-125586592#6"/>
    <trip id="veh174" type="veh_passenger" depart="221.85" departLane="best" departSpeed="max" from="35844843#0" to="35853682#0"/>
    <trip id="veh175" type="veh_passenger" depart="223.12" departLane="best" from="-35843043#0" to="271762496"/>
    <trip id="veh176" type="veh_passenger" depart="224.40" departLane="best" from="-540537300#8" to="340047561"/>
    <trip id="veh177" type="veh_passenger" depart="225.67" departLane="best" from="-35845424#12" to="35844685#1"/>
    <trip id="veh178" type="veh_passenger" depart="226.95" departLane="best" departSpeed="max" from="-108738532#4" to="-43793796#2"/>
    <trip id="veh179" type="veh_passenger" depart="228.22" departLane="best" from="272745132" to="35844761#2"/>
    <trip id="veh180" type="veh_passenger" depart="229.50" departLane="best" from="35845304" to="-35843861#6"/>
    <trip id="veh181" type="veh_passenger" depart="230.77" departLane="best" from="-43793796#1" to="302363668#9"/>
    <trip id="veh182" type="veh_passenger" depart="232.05" departLane="best" from="35843861#4" to="371237121#13"/>
    <trip id="veh183" type="veh_passenger" depart="233.32" departLane="best" departSpeed="max" from="-35853662#2" to="35853682#2"/>
    <trip id="veh184" type="veh_passenger" depart="234.60" departLane="best" from="-35844753#3" to="35853664#3"/>
    <trip id="veh185" type="veh_passenger" depart="235.87" departLane="best" from="-35846637#2" to="108738534#1"/>
    <trip id="veh186" type="veh_passenger" depart="237.15" departLane="best" departSpeed="max" from="-594065761" to="-35853616#0"/>
    <trip id="veh187" type="veh_passenger" depart="238.42" departLane="best" from="-35843519#1" to="-115281683"/>
    <trip id="veh188" type="veh_passenger" depart="239.70" departLane="best" from="48049173#9" to="35844251#2"/>
    <trip id="veh189" type="veh_passenger" depart="240.97" departLane="best" from="42941539#2" to="35843535#1"/>
    <trip id="veh190" type="veh_passenger" depart="242.25" departLane="best" departSpeed="max" from="-35846547" to="272759163"/>
    <trip id="veh191" type="veh_passenger" depart="243.52" departLane="best" from="-108738532#0" to="-35846563#3"/>
    <trip id="veh193" type="veh_passenger" depart="246.07" departLane="best" from="-35843838#2" to="136563963#1"/>
    <trip id="veh194" type="veh_passenger" depart="247.35" departLane="best" from="115580218#6" to="-35844843#0"/>
    <trip id="veh195" type="veh_passenger" depart="248.62" departLane="best" from="-134927682#1" to="-420049328#1"/>
    <trip id="veh196" type="veh_passenger" depart="249.90" departLane="best" departSpeed="max" from="35846421#0" to="-35844324"/>
    <trip id="veh197" type="veh_passenger" depart="251.17" departLane="best" from="327288963#1" to="271763338#1"/>
    <trip id="veh198" type="veh_passenger" depart="252.45" departLane="best" from="35843561#1" to="371237121#5"/>
    <trip id="veh199" type="veh_passenger" depart="253.72" departLane="best" from="35846637#2" to="35845312#8"/>
    <trip id="veh201" type="veh_passenger" depart="256.27" departLane="best" departSpeed="max" from="-35844549#2" to="-133270574#1"/>
    <trip id="veh202" type="veh_passenger" depart="257.55" departLane="best" from="-35844894#0" to="141460115#1"/>
    <trip id="veh203" type="veh_passenger" depart="258.82" departLane="best" from="35854172#2-AddedOnRampEdge" to="316798044#5"/>
    <trip id="veh204" type="veh_passenger" depart="260.10" departLane="best" from="-787231291#0" to="-35843561#2"/>
    <trip id="veh205" type="veh_passenger" depart="261.37" departLane="best" from="-35844342#3" to="-35844594#1"/>
    <trip id="veh206" type="veh_passenger" depart="262.65" departLane="best" departSpeed="max" from="172336086" to="35845986#23"/>
    <trip id="veh207" type="veh_passenger" depart="263.92" departLane="best" from="-35843840#1" to="-1113105620#3"/>
    <trip id="veh208" type="veh_passenger" depart="265.20" departLane="best" from="35845312#6" to="35845986#6"/>
    <trip id="veh209" type="veh_passenger" depart="266.47" departLane="best" from="-35843020#4" to="115580218#2"/>
    <trip id="veh210" type="veh_passenger" depart="267.75" departLane="best" from="-35843840#0" to="-591307586#6"/>
    <trip id="veh211" type="veh_passenger" depart="269.02" departLane="best" from="271754883" to="-140090319#0"/>
    <trip id="veh212" type="veh_passenger" depart="270.30" departLane="best" from="35845309" to="35853682#3"/>
    <trip id="veh213" type="veh_passenger" depart="271.57" departLane="best" from="272747978#1" to="35846528#3"/>
    <trip id="veh214" type="veh_passenger" depart="272.85" departLane="best" departSpeed="max" from="35843864#0" to="778590557#2"/>
    <trip id="veh216" type="veh_passenger" depart="275.40" departLane="best" from="-371237121#8" to="35843492#2"/>
    <trip id="veh217" type="veh_passenger" depart="276.67" departLane="best" from="-35844753#2" to="271759713#1"/>
    <trip id="veh218" type="veh_passenger" depart="277.95" departLane="best" from="-35853674#2" to="272759163"/>
    <trip id="veh219" type="veh_passenger" depart="279.22" departLane="best" from="-416593400" to="35845312#11"/>
    <trip id="veh220" type="veh_passenger" depart="280.50" departLane="best" from="-136382489" to="-35846373#0"/>
    <trip id="veh221" type="veh_passenger" depart="281.77" departLane="best" departSpeed="max" from="-35844894#6" to="-35843791#3"/>
    <trip id="veh222" type="veh_passenger" depart="283.05" departLane="best" from="-35845986#14" to="271763338#5"/>
    <trip id="veh223" type="veh_passenger" depart="284.32" departLane="best" from="35843537#2" to="-35846432"/>
    <trip id="veh224" type="veh_passenger" depart="285.60" departLane="best" from="-302363668#11" to="-35846563#0"/>
    <trip id="veh225" type="veh_passenger" depart="286.87" departLane="best" departSpeed="max" from="-35846320#4" to="-362197199#0"/>
    <trip id="veh226" type="veh_passenger" depart="288.15" departLane="best" from="272745134#0" to="-35843820#2"/>
    <trip id="veh227" type="veh_passenger" depart="289.42" departLane="best" from="35844834#14" to="-35844592#4"/>
    <trip id="veh228" type="veh_passenger" depart="290.70" departLane="best" from="-35844634#2" to="-302363551#0"/>
    <trip id="veh229" type="veh_passenger" depart="291.97" departLane="best" from="-713151825#4" to="272759162#2"/>
    <trip id="veh230" type="veh_passenger" depart="293.25" departLane="best" departSpeed="max" from="-787231291#1" to="35844761#2"/>
    <trip id="veh231" type="veh_passenger" depart="294.52" departLane="best" from="-984246120#1" to="42941539#2"/>
    <trip id="veh232" type="veh_passenger" depart="295.80" departLane="best" departSpeed="max" from="327288963#0" to="35844592#9"/>
    <trip id="veh233" type="veh_passenger" depart="297.07" departLane="best" from="35854172#8" to="35845986#16"/>
    <trip id="veh234" type="veh_passenger" depart="298.35" departLane="best" from="-540537300#13" to="-111826711"/>
    <trip id="veh235" type="veh_passenger" depart="299.62" departLane="best" from="371237121#13" to="35845414#6"/>
    <trip id="veh236" type="veh_passenger" depart="300.90" departLane="best" from="35854172#6" to="-569365958#3"/>
    <trip id="veh237" type="veh_passenger" depart="302.17" departLane="best" from="-984246117#1" to="35845312#3"/>
    <trip id="veh238" type="veh_passenger" depart="303.45" departLane="best" from="272745143#0" to="35843202#5"/>
    <trip id="veh239" type="veh_passenger" depart="304.72" departLane="best" from="35844721#0" to="-35844866#2"/>
    <trip id="veh240" type="veh_passenger" depart="306.00" departLane="best" from="-111826712#1" to="133270574#7"/>
    <trip id="veh241" type="veh_passenger" depart="307.27" departLane="best" from="-35853682#3" to="35844267#0"/>
    <trip id="veh242" type="veh_passenger" depart="308.55" departLane="best" from="694782913" to="-35844291#2"/>
    <trip id="veh243" type="veh_passenger" depart="309.82" departLane="best" from="-133270585#11" to="-35843791#0"/>
    <trip id="veh244" type="veh_passenger" depart="311.10" departLane="best" from="35843519#1" to="133270574#2"/>
    <trip id="veh245" type="veh_passenger" depart="312.37" departLane="best" from="-591307586#2" to="302363668#6"/>
    <trip id="veh246" type="veh_passenger" depart="313.65" departLane="best" from="-125578297#6" to="35843805"/>
    <trip id="veh247" type="veh_passenger" depart="314.92" departLane="best" departSpeed="max" from="-35843544#2" to="-136382520#1"/>
    <trip id="veh248" type="veh_passenger" depart="316.20" departLane="best" departSpeed="max" from="-134927682#5" to="-591307587#3"/>
    <trip id="veh249" type="veh_passenger" depart="317.47" departLane="best" from="35844648" to="371237121#0"/>