<?xml version="1.0" encoding="UTF-8"?>

<!-- generated on 2023-07-17 22:25:18 by Eclipse SUMO netedit Version 1.18.0
-->

<routes xmlns:xsi="http://www.w3.org/2001/XMLSchema-instance" xsi:noNamespaceSchemaLocation="http://sumo.dlr.de/xsd/routes_file.xsd">
    <!-- VTypes -->
    <vType id="bus_bus" vClass="bus"/>
    <vType id="truck_truck" vClass="truck"/>
    <vType id="veh_passenger" vClass="passenger"/>
    <!-- Vehicles, persons and containers (sorted by depart) -->
    <trip id="bus0" type="bus_bus" depart="0.00" departLane="best" from="-35843556#1" to="133270574#0"/>
    <trip id="truck0" type="truck_truck" depart="0.00" departLane="best" from="-35843556#1" to="133270574#0"/>
    <trip id="veh0" type="veh_passenger" depart="0.00" departLane="best" from="35843791#3" to="133270574#10"/>
    <trip id="veh1" type="veh_passenger" depart="1.27" departLane="best" departSpeed="max" from="-35846327#3" to="-35844884#2"/>
    <trip id="truck1" type="truck_truck" depart="1.91" departLane="best" from="-35844857#1" to="35844685#3"/>
    <trip id="veh2" type="veh_passenger" depart="2.55" departLane="best" from="35844878#1" to="35844251#2"/>
    <trip id="bus1" type="bus_bus" depart="3.82" departLane="best" from="-35844857#1" to="35844685#3"/>
    <trip id="truck2" type="truck_truck" depart="3.82" departLane="best" from="-35844679#0" to="35843838#4"/>
    <trip id="veh3" type="veh_passenger" depart="3.82" departLane="best" from="371237121#9" to="-349757784#5"/>
    <trip id="veh4" type="veh_passenger" depart="5.10" departLane="best" from="-98695614#1" to="133270574#8"/>
    <trip id="truck3" type="truck_truck" depart="5.74" departLane="best" from="35854172#2-AddedOnRampEdge" to="-328234211"/>
    <trip id="veh5" type="veh_passenger" depart="6.37" departLane="best" from="-35844703" to="271759713#1"/>
    <trip id="bus2" type="bus_bus" depart="7.65" departLane="best" from="-35844679#0" to="35843838#4"/>
    <trip id="truck4" type="truck_truck" depart="7.65" departLane="best" from="-447231453#4" to="133270585#12"/>
    <trip id="veh6" type="veh_passenger" depart="7.65" departLane="best" from="-125578297#4" to="-35844708#3"/>
    <trip id="veh7" type="veh_passenger" depart="8.92" departLane="best" from="-35843825#0" to="272759163"/>
    <trip id="truck5" type="truck_truck" depart="9.56" departLane="best" from="35844291#1" to="136382489"/>
    <trip id="veh8" type="veh_passenger" depart="10.20" departLane="best" from="35844713#2" to="35843019#5"/>
    <trip id="bus3" type="bus_bus" depart="11.47" departLane="best" from="35854172#2-AddedOnRampEdge" to="-328234211"/>
    <trip id="truck6" type="truck_truck" depart="11.47" departLane="best" from="-115580218#6" to="-35844512#3"/>
    <trip id="veh9" type="veh_passenger" depart="11.47" departLane="best" departSpeed="max" from="35846554#0" to="111826712#0"/>
    <trip id="veh10" type="veh_passenger" depart="12.75" departLane="best" from="35846534#1" to="-35844608#0"/>
    <trip id="truck7" type="truck_truck" depart="13.39" departLane="best" from="35843791#0" to="271763338#4"/>
    <trip id="veh11" type="veh_passenger" depart="14.02" departLane="best" from="-35854178#3" to="-35843864#0"/>
    <trip id="bus4" type="bus_bus" depart="15.30" departLane="best" from="-447231453#4" to="133270585#12"/>
    <trip id="truck8" type="truck_truck" depart="15.30" departLane="best" from="35846339#3" to="111826712#0"/>
    <trip id="veh13" type="veh_passenger" depart="16.57" departLane="best" from="35854172#2" to="35843202#6"/>
    <trip id="truck9" type="truck_truck" depart="17.21" departLane="best" from="35846327#0" to="35844267#3"/>
    <trip id="veh14" type="veh_passenger" depart="17.85" departLane="best" from="35846537#1" to="35844857#0"/>
    <trip id="bus5" type="bus_bus" depart="19.12" departLane="best" from="35844291#1" to="136382489"/>
    <trip id="truck10" type="truck_truck" depart="19.12" departLane="best" from="-35846408#3" to="-35843830#0"/>
    <trip id="veh15" type="veh_passenger" depart="19.12" departLane="best" from="271763338#6" to="696018381#1"/>
    <trip id="veh16" type="veh_passenger" depart="20.40" departLane="best" from="-540537300#11" to="272759165"/>
    <trip id="truck11" type="truck_truck" depart="21.04" departLane="best" departSpeed="max" from="547572456#0" to="-35846590"/>
    <trip id="veh17" type="veh_passenger" depart="21.67" departLane="best" from="35853670" to="35843540#1"/>
    <trip id="bus6" type="bus_bus" depart="22.95" departLane="best" from="-115580218#6" to="-35844512#3"/>
    <trip id="truck12" type="truck_truck" depart="22.95" departLane="best" from="-327947721#2" to="-35843019#4"/>
    <trip id="truck13" type="truck_truck" depart="24.86" departLane="best" from="35846551#1" to="35843202#6"/>
    <trip id="veh20" type="veh_passenger" depart="25.50" departLane="best" departSpeed="max" from="-35844761#3" to="-35846590"/>
    <trip id="bus7" type="bus_bus" depart="26.77" departLane="best" from="35843791#0" to="271763338#4"/>
    <trip id="truck14" type="truck_truck" depart="26.77" departLane="best" from="35846334#0" to="35844679#1"/>
    <trip id="veh21" type="veh_passenger" depart="26.77" departLane="best" from="-302363668#7" to="-35845424#12"/>
    <trip id="veh22" type="veh_passenger" depart="28.05" departLane="best" from="-35842986#2" to="35846528#0"/>
    <trip id="truck15" type="truck_truck" depart="28.69" departLane="best" from="138288152#5" to="713151825#0"/>
    <trip id="veh23" type="veh_passenger" depart="29.32" departLane="best" from="35843779#1" to="540537300#4"/>
    <trip id="bus8" type="bus_bus" depart="30.60" departLane="best" from="35846339#3" to="111826712#0"/>
    <trip id="truck16" type="truck_truck" depart="30.60" departLane="best" from="-35853675#14" to="272759162#3"/>
    <trip id="veh24" type="veh_passenger" depart="30.60" departLane="best" from="-48049173#0" to="-35844834#15"/>
    <trip id="veh25" type="veh_passenger" depart="31.87" departLane="best" from="-35845986#5" to="-48049173#7"/>
    <trip id="truck17" type="truck_truck" depart="32.51" departLane="best" from="35846408#2" to="35843535#2"/>
    <trip id="veh26" type="veh_passenger" depart="33.15" departLane="best" from="35843816#0" to="35843363"/>
    <trip id="bus9" type="bus_bus" depart="34.42" departLane="best" from="35846327#0" to="35844267#3"/>
    <trip id="truck18" type="truck_truck" depart="34.42" departLane="best" from="-35846642#0" to="328234209"/>
    <trip id="veh27" type="veh_passenger" depart="34.42" departLane="best" from="-35843827#0" to="35844851"/>
    <trip id="veh28" type="veh_passenger" depart="35.70" departLane="best" from="-35843816#1" to="591307587#4"/>
    <trip id="veh29" type="veh_passenger" depart="36.97" departLane="best" from="756582327#1" to="35843800#0"/>
    <trip id="bus10" type="bus_bus" depart="38.25" departLane="best" from="-35846408#3" to="-35843830#0"/>
    <trip id="truck20" type="truck_truck" depart="38.25" departLane="best" from="-35844587#0" to="35846343#4"/>
    <trip id="veh30" type="veh_passenger" depart="38.25" departLane="best" from="272759162#3" to="35844342#5"/>
    <trip id="veh31" type="veh_passenger" depart="39.52" departLane="best" from="-35853682#2" to="35846327#2"/>
    <trip id="truck21" type="truck_truck" depart="40.16" departLane="best" from="-302363551#2" to="-35844753#1"/>
    <trip id="veh32" type="veh_passenger" depart="40.80" departLane="best" departSpeed="max" from="-35844761#3" to="133270585#12"/>
    <trip id="bus11" type="bus_bus" depart="42.07" departLane="best" departSpeed="max" from="547572456#0" to="-35846590"/>
    <trip id="veh33" type="veh_passenger" depart="42.07" departLane="best" from="-35853664#0" to="-35846408#0"/>
    <trip id="veh34" type="veh_passenger" depart="43.35" departLane="best" from="-35844634#1" to="540537300#14"/>
    <trip id="truck23" type="truck_truck" depart="43.99" departLane="best" from="35843540#0" to="35853680#3"/>
    <trip id="veh35" type="veh_passenger" depart="44.62" departLane="best" departSpeed="max" from="364196710#0" to="35853682#3"/>
    <trip id="bus12" type="bus_bus" depart="45.90" departLane="best" from="-327947721#2" to="-35843019#4"/>
    <trip id="truck24" type="truck_truck" depart="45.90" departLane="best" departSpeed="max" from="-35853664#4" to="-35844608#0"/>
    <trip id="veh36" type="veh_passenger" depart="45.90" departLane="best" from="-35843840#0" to="984246117#0"/>
    <trip id="veh37" type="veh_passenger" depart="47.17" departLane="best" departSpeed="max" from="42941553#0" to="134927682#4"/>
    <trip id="truck25" type="truck_truck" depart="47.81" departLane="best" from="35844834#15" to="45638513#2"/>
    <trip id="veh38" type="veh_passenger" depart="48.45" departLane="best" from="-35845986#20" to="-35845986#9"/>
    <trip id="bus13" type="bus_bus" depart="49.72" departLane="best" from="35846551#1" to="35843202#6"/>
    <trip id="truck26" type="truck_truck" depart="49.72" departLane="best" from="35843804#1" to="35843363"/>
    <trip id="veh39" type="veh_passenger" depart="49.72" departLane="best" departSpeed="max" from="272760667#0" to="-35846379#2"/>
    <trip id="veh40" type="veh_passenger" depart="51.00" departLane="best" departSpeed="max" from="327288963#0" to="405297835#2"/>
    <trip id="truck27" type="truck_truck" depart="51.64" departLane="best" from="35843804#2" to="35844679#0"/>
    <trip id="veh41" type="veh_passenger" depart="52.27" departLane="best" from="-591307588#1" to="-35844866#1"/>
    <trip id="bus14" type="bus_bus" depart="53.55" departLane="best" from="35846334#0" to="35844679#1"/>
    <trip id="truck28" type="truck_truck" depart="53.55" departLane="best" from="-35843782#1" to="-371237120#3"/>
    <trip id="veh42" type="veh_passenger" depart="53.55" departLane="best" from="984872684" to="271759715"/>
    <trip id="truck29" type="truck_truck" depart="55.46" departLane="best" from="778590555#2" to="35843777"/>
    <trip id="bus15" type="bus_bus" depart="57.37" departLane="best" from="138288152#5" to="713151825#0"/>
    <trip id="truck30" type="truck_truck" depart="57.37" departLane="best" from="271754882" to="35843861#12"/>
    <trip id="veh45" type="veh_passenger" depart="57.37" departLane="best" departSpeed="max" from="35846408#0" to="115281711#1"/>
    <trip id="veh46" type="veh_passenger" depart="58.65" departLane="best" from="-138288152#5" to="591307588#1"/>
    <trip id="truck31" type="truck_truck" depart="59.29" departLane="best" departSpeed="max" from="35846534#0" to="35845312#2"/>
    <trip id="veh47" type="veh_passenger" depart="59.92" departLane="best" from="-984246120#0" to="272745139"/>
    <trip id="bus16" type="bus_bus" depart="61.20" departLane="best" from="-35853675#14" to="272759162#3"/>
    <trip id="truck32" type="truck_truck" depart="61.20" departLane="best" from="-35844587#2" to="133270585#7"/>
    <trip id="veh48" type="veh_passenger" depart="61.20" departLane="best" departSpeed="max" from="683225675#0" to="35854172#6"/>
    <trip id="veh49" type="veh_passenger" depart="62.47" departLane="best" from="1113105620#0" to="35844761#3"/>
    <trip id="truck33" type="truck_truck" depart="63.11" departLane="best" departSpeed="max" from="-35846327#3" to="35845424#11"/>
    <trip id="veh50" type="veh_passenger" depart="63.75" departLane="best" departSpeed="max" from="35844319" to="272747978#1"/>
    <trip id="bus17" type="bus_bus" depart="65.02" departLane="best" from="35846408#2" to="35843535#2"/>
    <trip id="truck34" type="truck_truck" depart="65.02" departLane="best" departSpeed="max" from="-35843887" to="540537300#10"/>
    <trip id="veh51" type="veh_passenger" depart="65.02" departLane="best" from="-35845986#4" to="-35843804#0"/>
    <trip id="veh52" type="veh_passenger" depart="66.30" departLane="best" from="-35843196#0" to="125586592#6"/>
    <trip id="truck35" type="truck_truck" depart="66.94" departLane="best" from="-35853675#12" to="-35846427"/>
    <trip id="veh53" type="veh_passenger" depart="67.57" departLane="best" from="-133057881#2" to="569365958#4"/>
    <trip id="bus18" type="bus_bus" depart="68.85" departLane="best" from="-35846642#0" to="328234209"/>
    <trip id="truck36" type="truck_truck" depart="68.85" departLane="best" from="35843804#0" to="-43793796#0"/>
    <trip id="veh54" type="veh_passenger" depart="68.85" departLane="best" departSpeed="max" from="364196710#0" to="35846390#10"/>
    <trip id="veh55" type="veh_passenger" depart="70.12" departLane="best" departSpeed="max" from="271739792#0" to="35844592#1"/>
    <trip id="truck37" type="truck_truck" depart="70.76" departLane="best" from="-371237121#11" to="108738534#3"/>
    <trip id="veh56" type="veh_passenger" depart="71.40" departLane="best" departSpeed="max" from="42941553#0" to="35854190"/>
    <trip id="truck38" type="truck_truck" depart="72.67" departLane="best" from="35844834#10" to="-35844843#1"/>
    <trip id="veh57" type="veh_passenger" depart="72.67" departLane="best" from="-35846528#2" to="35843793#1"/>
    <trip id="veh58" type="veh_passenger" depart="73.95" departLane="best" from="-35843196#0" to="35843861#4"/>
    <trip id="truck39" type="truck_truck" depart="74.59" departLane="best" from="271763338#3" to="-35845309"/>
    <trip id="veh59" type="veh_passenger" depart="75.22" departLane="best" from="35845424#8" to="272749262"/>
    <trip id="bus20" type="bus_bus" depart="76.50" departLane="best" from="-35844587#0" to="35846343#4"/>
    <trip id="truck40" type="truck_truck" depart="76.50" departLane="best" from="-302363668#8" to="-35854178#6"/>
    <trip id="veh60" type="veh_passenger" depart="76.50" departLane="best" from="-35846343#6" to="272745139"/>
    <trip id="veh61" type="veh_passenger" depart="77.77" departLane="best" from="-108738532#0" to="-371237120#0"/>
    <trip id="truck41" type="truck_truck" depart="78.41" departLane="best" from="-35854178#6" to="-35844661"/>
    <trip id="veh62" type="veh_passenger" depart="79.05" departLane="best" from="-115580217#1" to="45638513#0"/>
    <trip id="bus21" type="bus_bus" depart="80.32" departLane="best" from="-302363551#2" to="-35844753#1"/>
    <trip id="truck42" type="truck_truck" depart="80.32" departLane="best" from="-98695614#0" to="-136382520#8"/>
    <trip id="veh63" type="veh_passenger" depart="80.32" departLane="best" from="-364201946#1" to="35853674#2"/>
    <trip id="veh64" type="veh_passenger" depart="81.60" departLane="best" from="-35846631#1" to="-172336086"/>
    <trip id="truck43" type="truck_truck" depart="82.24" departLane="best" from="-316798044#7" to="-138288152#1"/>
    <trip id="veh65" type="veh_passenger" depart="82.87" departLane="best" from="364196710#4" to="540537300#7"/>
    <trip id="truck44" type="truck_truck" depart="84.15" departLane="best" from="-35843019#3" to="35843544#2"/>
    <trip id="veh66" type="veh_passenger" depart="84.15" departLane="best" from="-327947721#2" to="271741415#4"/>
    <trip id="veh67" type="veh_passenger" depart="85.42" departLane="best" from="-201662464#1" to="35845424#6"/>
    <trip id="truck45" type="truck_truck" depart="86.06" departLane="best" from="35845424#8" to="581838991"/>
    <trip id="veh68" type="veh_passenger" depart="86.70" departLane="best" from="-35845986#15" to="-35843791#2"/>
    <trip id="bus23" type="bus_bus" depart="87.97" departLane="best" from="35843540#0" to="35853680#3"/>
    <trip id="veh69" type="veh_passenger" depart="87.97" departLane="best" from="136382520#1" to="272759163"/>
    <trip id="veh70" type="veh_passenger" depart="89.25" departLane="best" from="-35845986#20" to="362229454#1"/>
    <trip id="truck47" type="truck_truck" depart="89.89" departLane="best" from="984246120#2" to="201662464#3"/>
    <trip id="veh71" type="veh_passenger" depart="90.52" departLane="best" departSpeed="max" from="-98695614#2" to="-35844834#7"/>
    <trip id="bus24" type="bus_bus" depart="91.80" departLane="best" departSpeed="max" from="-35853664#4" to="-35844608#0"/>
    <trip id="truck48" type="truck_truck" depart="91.80" departLane="best" from="-591307588#3" to="35853664#2"/>
    <trip id="veh72" type="veh_passenger" depart="91.80" departLane="best" from="272745134#0" to="35844857#1"/>
    <trip id="veh73" type="veh_passenger" depart="93.07" departLane="best" from="-35844592#2" to="-35853680#0"/>
    <trip id="truck49" type="truck_truck" depart="93.71" departLane="best" departSpeed="max" from="-108738845" to="35844615#2"/>
    <trip id="veh74" type="veh_passenger" depart="94.35" departLane="best" from="984246117#0" to="-35843814#5"/>
    <trip id="bus25" type="bus_bus" depart="95.62" departLane="best" from="35844834#15" to="45638513#2"/>
    <trip id="veh75" type="veh_passenger" depart="95.62" departLane="best" departSpeed="max" from="-35843358#1" to="35844894#0"/>
    <trip id="veh76" type="veh_passenger" depart="96.90" departLane="best" departSpeed="max" from="-35853682#6" to="-35843019#2"/>
    <trip id="truck51" type="truck_truck" depart="97.54" departLane="best" from="35844834#14" to="35843779#0"/>
    <trip id="veh77" type="veh_passenger" depart="98.17" departLane="best" from="-35844834#11" to="35844866#4"/>
    <trip id="bus26" type="bus_bus" depart="99.45" departLane="best" from="35843804#1" to="35843363"/>
    <trip id="truck52" type="truck_truck" depart="99.45" departLane="best" from="-35843020#0" to="713151825#1"/>
    <trip id="veh78" type="veh_passenger" depart="99.45" departLane="best" departSpeed="max" from="-224826613" to="-35843773#2"/>
    <trip id="veh79" type="veh_passenger" depart="100.72" departLane="best" departSpeed="max" from="-35844761#3" to="42941539#3"/>
    <trip id="truck53" type="truck_truck" depart="101.36" departLane="best" departSpeed="max" from="-594065761" to="-569365958#3"/>
    <trip id="veh80" type="veh_passenger" depart="102.00" departLane="best" from="35854178#1" to="-311740851#1"/>
    <trip id="bus27" type="bus_bus" depart="103.27" departLane="best" from="35843804#2" to="35844679#0"/>
    <trip id="truck54" type="truck_truck" depart="103.27" departLane="best" from="-35853675#11" to="-35845414#1"/>
    <trip id="veh81" type="veh_passenger" depart="103.27" departLane="best" from="-35844857#2" to="35843861#13"/>
    <trip id="veh82" type="veh_passenger" depart="104.55" departLane="best" departSpeed="max" from="-35844679#1" to="-35843804#2"/>
    <trip id="truck55" type="truck_truck" depart="105.19" departLane="best" from="-125578297#1" to="35844251#1"/>
    <trip id="veh83" type="veh_passenger" depart="105.82" departLane="best" from="-48049173#1" to="327947721#3"/>
    <trip id="bus28" type="bus_bus" depart="107.10" departLane="best" from="-35843782#1" to="-371237120#3"/>
    <trip id="truck56" type="truck_truck" depart="107.10" departLane="best" from="371237120#5" to="35853675#0"/>
    <trip id="veh84" type="veh_passenger" depart="107.10" departLane="best" from="-134927682#0" to="35846365#2"/>
    <trip id="veh85" type="veh_passenger" depart="108.37" departLane="best" from="35846542" to="-35844631#4"/>
    <trip id="truck57" type="truck_truck" depart="109.01" departLane="best" from="-35845427#1" to="35843777"/>
    <trip id="veh86" type="veh_passenger" depart="109.65" departLane="best" from="349757782" to="125578297#4"/>
    <trip id="bus29" type="bus_bus" depart="110.92" departLane="best" from="778590555#2" to="35843777"/>
    <trip id="truck58" type="truck_truck" depart="110.92" departLane="best" from="35843019#6" to="-35843825#0"/>
    <trip id="veh87" type="veh_passenger" depart="110.92" departLane="best" departSpeed="max" from="-98695614#2" to="-137370334#1"/>
    <trip id="veh88" type="veh_passenger" depart="112.20" departLane="best" departSpeed="max" from="35844843#0" to="35843868#1"/>
    <trip id="truck59" type="truck_truck" depart="112.84" departLane="best" from="35844843#2" to="271754881#1"/>
    <trip id="veh89" type="veh_passenger" depart="113.47" departLane="best" from="739572904#0" to="35843201#0"/>
    <trip id="bus30" type="bus_bus" depart="114.75" departLane="best" from="271754882" to="35843861#12"/>
    <trip id="truck60" type="truck_truck" depart="114.75" departLane="best" from="35845312#11" to="224826613"/>
    <trip id="truck61" type="truck_truck" depart="116.66" departLane="best" from="-115281711#0" to="42941553#8"/>
    <trip id="veh92" type="veh_passenger" depart="117.30" departLane="best" departSpeed="max" from="-35844251#2" to="-133270574#6"/>
    <trip id="bus31" type="bus_bus" depart="118.57" departLane="best" departSpeed="max" from="35846534#0" to="35845312#2"/>
    <trip id="truck62" type="truck_truck" depart="118.57" departLane="best" from="-35853675#17" to="35846479#0"/>
    <trip id="veh93" type="veh_passenger" depart="118.57" departLane="best" from="-98695614#1" to="35846528#2"/>
    <trip id="veh94" type="veh_passenger" depart="119.85" departLane="best" from="-35845414#2" to="42941553#8"/>
    <trip id="truck63" type="truck_truck" depart="120.49" departLane="best" from="-35845986#7" to="-172336086"/>
    <trip id="veh95" type="veh_passenger" depart="121.12" departLane="best" from="-115580219#1" to="35854172#6"/>
    <trip id="bus32" type="bus_bus" depart="122.40" departLane="best" from="-35844587#2" to="133270585#7"/>
    <trip id="truck64" type="truck_truck" depart="122.40" departLane="best" from="-35853675#16" to="540537300#7"/>
    <trip id="veh96" type="veh_passenger" depart="122.40" departLane="best" from="133057891#2" to="-140090319#0"/>
    <trip id="veh97" type="veh_passenger" depart="123.67" departLane="best" from="-988198555#2" to="35853675#12"/>
    <trip id="truck65" type="truck_truck" depart="124.31" departLane="best" from="-302363668#7" to="125586592#4"/>
    <trip id="veh98" type="veh_passenger" depart="124.95" departLane="best" from="35854172#2-AddedOnRampEdge" to="-35844293#0"/>
    <trip id="bus33" type="bus_bus" depart="126.22" departLane="best" departSpeed="max" from="-35846327#3" to="35845424#11"/>
    <trip id="truck66" type="truck_truck" depart="126.22" departLane="best" from="-145659797#0" to="35844866#1"/>
    <trip id="veh99" type="veh_passenger" depart="126.22" departLane="best" from="138288152#5" to="-35844843#0"/>
    <trip id="veh100" type="veh_passenger" depart="127.50" departLane="best" from="-591307588#3" to="201662464#0"/>
    <trip id="truck67" type="truck_truck" depart="128.14" departLane="best" departSpeed="max" from="35844866#0" to="-35843556#1"/>
    <trip id="veh101" type="veh_passenger" depart="128.77" departLane="best" from="-540537300#11" to="756582327#4"/>
    <trip id="bus34" type="bus_bus" depart="130.05" departLane="best" departSpeed="max" from="-35843887" to="540537300#10"/>
    <trip id="truck68" type="truck_truck" depart="130.05" departLane="best" from="984872684" to="272745145"/>
    <trip id="veh102" type="veh_passenger" depart="130.05" departLane="best" from="-35845986#22" to="35846365#2"/>
    <trip id="veh103" type="veh_passenger" depart="131.32" departLane="best" from="272749262" to="115281718#0"/>
    <trip id="truck69" type="truck_truck" depart="131.96" departLane="best" from="-35844834#10" to="35853675#14"/>
    <trip id="veh104" type="veh_passenger" depart="132.60" departLane="best" from="-581838991" to="984246121"/>
    <trip id="bus35" type="bus_bus" depart="133.87" departLane="best" from="-35853675#12" to="-35846427"/>
    <trip id="truck70" type="truck_truck" depart="133.87" departLane="best" departSpeed="max" from="-45638513#2" to="-35844621#0"/>
    <trip id="veh105" type="veh_passenger" depart="133.87" departLane="best" from="272759162#3" to="35844758#0"/>
    <trip id="veh106" type="veh_passenger" depart="135.15" departLane="best" from="35843804#2" to="-35853616#0"/>
    <trip id="truck71" type="truck_truck" depart="135.79" departLane="best" from="140090319#1" to="35844679#1"/>
    <trip id="bus36" type="bus_bus" depart="137.70" departLane="best" from="35843804#0" to="-43793796#0"/>
    <trip id="truck72" type="truck_truck" depart="137.70" departLane="best" departSpeed="max" from="-35843854" to="-35846421#0"/>
    <trip id="veh108" type="veh_passenger" depart="137.70" departLane="best" from="272745139" to="35845312#3"/>
    <trip id="veh109" type="veh_passenger" depart="138.97" departLane="best" departSpeed="max" from="-137370334#2" to="349757784#0"/>
    <trip id="truck73" type="truck_truck" depart="139.61" departLane="best" from="-984246120#0" to="-35843804#0"/>
    <trip id="bus37" type="bus_bus" depart="141.52" departLane="best" from="-371237121#11" to="108738534#3"/>
    <trip id="veh111" type="veh_passenger" depart="141.52" departLane="best" departSpeed="max" from="-35843809" to="591307588#0"/>
    <trip id="veh112" type="veh_passenger" depart="142.80" departLane="best" from="-302363668#8" to="-35844621#0"/>
    <trip id="truck75" type="truck_truck" depart="143.44" departLane="best" departSpeed="max" from="-35843196#1" to="35844685#6"/>
    <trip id="bus38" type="bus_bus" depart="145.35" departLane="best" from="35844834#10" to="-35844843#1"/>
    <trip id="truck76" type="truck_truck" depart="145.35" departLane="best" from="-35846390#7" to="35843019#3"/>
    <trip id="veh114" type="veh_passenger" depart="145.35" departLane="best" from="-35844843#2" to="35843556#2"/>
    <trip id="veh115" type="veh_passenger" depart="146.62" departLane="best" from="371237121#5" to="35845986#8"/>
    <trip id="truck77" type="truck_truck" depart="147.26" departLane="best" departSpeed="max" from="-159940587#1" to="35843556#0"/>
    <trip id="bus39" type="bus_bus" depart="149.17" departLane="best" from="271763338#3" to="-35845309"/>
    <trip id="truck78" type="truck_truck" depart="149.17" departLane="best" from="35844587#2" to="366770406#1"/>
    <trip id="veh117" type="veh_passenger" depart="149.17" departLane="best" from="-984246118" to="-349757782"/>
    <trip id="veh118" type="veh_passenger" depart="150.45" departLane="best" from="271759715" to="-48049173#3"/>
    <trip id="truck79" type="truck_truck" depart="151.09" departLane="best" from="-35846631#3" to="302363668#4"/>
    <trip id="veh119" type="veh_passenger" depart="151.72" departLane="best" from="-35844594#0" to="35844753#2"/>
    <trip id="bus40" type="bus_bus" depart="153.00" departLane="best" from="-302363668#8" to="-35854178#6"/>
    <trip id="truck80" type="truck_truck" depart="153.00" departLane="best" from="-35844615#2" to="35843821"/>
    <trip id="veh120" type="veh_passenger" depart="153.00" departLane="best" from="-35844863#1" to="984246117#1"/>
    <trip id="truck81" type="truck_truck" depart="154.91" departLane="best" from="-35844251#0" to="-35843561#1"/>
    <trip id="veh122" type="veh_passenger" depart="155.55" departLane="best" from="-35853664#2" to="35845414#1"/>
    <trip id="bus41" type="bus_bus" depart="156.82" departLane="best" from="-35854178#6" to="-35844661"/>
    <trip id="truck82" type="truck_truck" depart="156.82" departLane="best" departSpeed="max" from="43793796#0" to="327947721#0"/>
    <trip id="veh123" type="veh_passenger" depart="156.82" departLane="best" from="-291492642#0" to="134927682#2"/>
    <trip id="veh124" type="veh_passenger" depart="158.10" departLane="best" from="-291492642#1" to="-35844843#0"/>
    <trip id="truck83" type="truck_truck" depart="158.74" departLane="best" from="-984246117#1" to="35845424#13"/>
    <trip id="veh125" type="veh_passenger" depart="159.37" departLane="best" from="-35845986#22" to="-48049173#10"/>
    <trip id="bus42" type="bus_bus" depart="160.65" departLane="best" from="-98695614#0" to="-136382520#8"/>
    <trip id="truck84" type="truck_truck" depart="160.65" departLane="best" from="35846334#0" to="-35844319"/>
    <trip id="veh126" type="veh_passenger" depart="160.65" departLane="best" from="371237120#5" to="366770406#1"/>
    <trip id="veh127" type="veh_passenger" depart="161.92" departLane="best" departSpeed="max" from="-45638513#2" to="35843868#0"/>
    <trip id="truck85" type="truck_truck" depart="162.56" departLane="best" departSpeed="max" from="-327947729#3" to="694707003#0"/>
    <trip id="veh128" type="veh_passenger" depart="163.20" departLane="best" from="35853675#14" to="-35844648"/>
    <trip id="bus43" type="bus_bus" depart="164.47" departLane="best" from="-316798044#7" to="-138288152#1"/>
    <trip id="truck86" type="truck_truck" depart="164.47" departLane="best" departSpeed="max" from="-45638513#2" to="1113105620#2"/>
    <trip id="veh129" type="veh_passenger" depart="164.47" departLane="best" from="35843202#4" to="778590555#5"/>
    <trip id="veh130" type="veh_passenger" depart="165.75" departLane="best" from="-35843838#0" to="115281718#0"/>
    <trip id="truck87" type="truck_truck" depart="166.39" departLane="best" departSpeed="max" from="35844631#0" to="35843838#0"/>
    <trip id="veh131" type="veh_passenger" depart="167.02" departLane="best" from="-35846631#2" to="35853664#0"/>
    <trip id="bus44" type="bus_bus" depart="168.30" departLane="best" from="-35843019#3" to="35843544#2"/>
    <trip id="truck88" type="truck_truck" depart="168.30" departLane="best" from="739572904#0" to="-35843020#1"/>
    <trip id="veh132" type="veh_passenger" depart="168.30" departLane="best" from="35843861#2" to="-540537300#0"/>
    <trip id="veh133" type="veh_passenger" depart="169.57" departLane="best" departSpeed="max" from="-35843540#2" to="35843535#4"/>
    <trip id="truck89" type="truck_truck" depart="170.21" departLane="best" departSpeed="max" from="-364201946#3" to="-35846637#2"/>
    <trip id="veh134" type="veh_passenger" depart="170.85" departLane="best" from="-35843020#4" to="272759294#0"/>
    <trip id="bus45" type="bus_bus" depart="172.12" departLane="best" from="35845424#8" to="581838991"/>
    <trip id="truck90" type="truck_truck" depart="172.12" departLane="best" from="-35846642#0" to="35844857#2"/>
    <trip id="veh135" type="veh_passenger" depart="172.12" departLane="best" departSpeed="max" from="-35846320#4" to="35843204#2"/>
    <trip id="veh136" type="veh_passenger" depart="173.40" departLane="best" from="35844742#1" to="-35844753#2"/>