<?xml version="1.0" encoding="UTF-8"?>

<!-- generated on 2023-07-17 22:17:56.609919 by osmWebWizard.py v1_18_0+0000-03ecfdea036
<configuration>
    <net-file value="C:\Users\Rustam Mattiev\2023-07-17-22-17-41\osm.net.xml.gz"/>
    <output-trip-file value="C:\Users\Rustam Mattiev\2023-07-17-22-17-41\osm.truck.trips.xml"/>
    <route-file value="C:\Users\Rustam Mattiev\2023-07-17-22-17-41\osm.truck.rou.xml"/>
    <prefix value="truck"/>
    <trip-attributes value="departLane=&quot;best&quot;"/>
    <fringe-start-attributes value="departSpeed=&quot;max&quot;"/>
    <vehicle-class value="truck"/>
    <fringe-factor value="5"/>
    <vclass value="truck"/>
    <via-edge-types value="highway.motorway,highway.motorway_link,highway.trunk_link,highway.primary_link,highway.secondary_link,highway.tertiary_link"/>
    <min-distance value="600.0"/>
    <min-distance.fringe value="10.0"/>
    <remove-loops value="True"/>
    <validate value="True"/>
    <insertion-density value="8.0"/>
</configuration>
-->

<!-- generated on 2023-07-17 22:17:56 by Eclipse SUMO duarouter Version 1.18.0
<configuration xmlns:xsi="http://www.w3.org/2001/XMLSchema-instance" xsi:noNamespaceSchemaLocation="http://sumo.dlr.de/xsd/duarouterConfiguration.xsd">

    <input>
        <net-file value="C:\Users\Rustam Mattiev\2023-07-17-22-17-41\osm.net.xml.gz"/>
        <route-files value="C:\Users\Rustam Mattiev\2023-07-17-22-17-41\osm.truck.trips.xml"/>
    </input>

    <output>
        <output-file value="C:\Users\Rustam Mattiev\2023-07-17-22-17-41\osm.truck.trips.xml.tmp"/>
        <alternatives-output value="NUL"/>
        <write-trips value="true"/>
    </output>

    <processing>
        <remove-loops value="true"/>
    </processing>

    <time>
        <begin value="0.0"/>
        <end value="3600.0"/>
    </time>

    <report>
        <no-warnings value="true"/>
        <ignore-errors value="true"/>
        <no-step-log value="true"/>
    </report>

</configuration>
-->

<routes xmlns:xsi="http://www.w3.org/2001/XMLSchema-instance" xsi:noNamespaceSchemaLocation="http://sumo.dlr.de/xsd/routes_file.xsd">
    <vType id="truck_truck" vClass="truck"/>
    <trip id="truck0" type="truck_truck" depart="0.00" departLane="best" from="-35843556#1" to="133270574#0"/>
    <trip id="truck1" type="truck_truck" depart="1.91" departLane="best" from="-35844857#1" to="35844685#3"/>
    <trip id="truck2" type="truck_truck" depart="3.82" departLane="best" from="-35844679#0" to="35843838#4"/>
    <trip id="truck3" type="truck_truck" depart="5.74" departLane="best" from="35854172#2-AddedOnRampEdge" to="-328234211"/>
    <trip id="truck4" type="truck_truck" depart="7.65" departLane="best" from="-447231453#4" to="133270585#12"/>
    <trip id="truck5" type="truck_truck" depart="9.56" departLane="best" from="35844291#1" to="136382489"/>
    <trip id="truck6" type="truck_truck" depart="11.47" departLane="best" from="-115580218#6" to="-35844512#3"/>
    <trip id="truck7" type="truck_truck" depart="13.39" departLane="best" from="35843791#0" to="271763338#4"/>
    <trip id="truck8" type="truck_truck" depart="15.30" departLane="best" from="35846339#3" to="111826712#0"/>
    <trip id="truck9" type="truck_truck" depart="17.21" departLane="best" from="35846327#0" to="35844267#3"/>
    <trip id="truck10" type="truck_truck" depart="19.12" departLane="best" from="-35846408#3" to="-35843830#0"/>
    <trip id="truck11" type="truck_truck" depart="21.04" departLane="best" departSpeed="max" from="547572456#0" to="-35846590"/>
    <trip id="truck12" type="truck_truck" depart="22.95" departLane="best" from="-327947721#2" to="-35843019#4"/>
    <trip id="truck13" type="truck_truck" depart="24.86" departLane="best" from="35846551#1" to="35843202#6"/>
    <trip id="truck14" type="truck_truck" depart="26.77" departLane="best" from="35846334#0" to="35844679#1"/>
    <trip id="truck15" type="truck_truck" depart="28.69" departLane="best" from="138288152#5" to="713151825#0"/>
    <trip id="truck16" type="truck_truck" depart="30.60" departLane="best" from="-35853675#14" to="272759162#3"/>
    <trip id="truck17" type="truck_truck" depart="32.51" departLane="best" from="35846408#2" to="35843535#2"/>
    <trip id="truck18" type="truck_truck" depart="34.42" departLane="best" from="-35846642#0" to="328234209"/>
    <trip id="truck20" type="truck_truck" depart="38.25" departLane="best" from="-35844587#0" to="35846343#4"/>
    <trip id="truck21" type="truck_truck" depart="40.16" departLane="best" from="-302363551#2" to="-35844753#1"/>
    <trip id="truck23" type="truck_truck" depart="43.99" departLane="best" from="35843540#0" to="35853680#3"/>
    <trip id="truck24" type="truck_truck" depart="45.90" departLane="best" departSpeed="max" from="-35853664#4" to="-35844608#0"/>
    <trip id="truck25" type="truck_truck" depart="47.81" departLane="best" from="35844834#15" to="45638513#2"/>
    <trip id="truck26" type="truck_truck" depart="49.72" departLane="best" from="35843804#1" to="35843363"/>
    <trip id="truck27" type="truck_truck" depart="51.64" departLane="best" from="35843804#2" to="35844679#0"/>
    <trip id="truck28" type="truck_truck" depart="53.55" departLane="best" from="-35843782#1" to="-371237120#3"/>
    <trip id="truck29" type="truck_truck" depart="55.46" departLane="best" from="778590555#2" to="35843777"/>
    <trip id="truck30" type="truck_truck" depart="57.37" departLane="best" from="271754882" to="35843861#12"/>
    <trip id="truck31" type="truck_truck" depart="59.29" departLane="best" departSpeed="max" from="35846534#0" to="35845312#2"/>
    <trip id="truck32" type="truck_truck" depart="61.20" departLane="best" from="-35844587#2" to="133270585#7"/>
    <trip id="truck33" type="truck_truck" depart="63.11" departLane="best" departSpeed="max" from="-35846327#3" to="35845424#11"/>
    <trip id="truck34" type="truck_truck" depart="65.02" departLane="best" departSpeed="max" from="-35843887" to="540537300#10"/>
    <trip id="truck35" type="truck_truck" depart="66.94" departLane="best" from="-35853675#12" to="-35846427"/>
    <trip id="truck36" type="truck_truck" depart="68.85" departLane="best" from="35843804#0" to="-43793796#0"/>
    <trip id="truck37" type="truck_truck" depart="70.76" departLane="best" from="-371237121#11" to="108738534#3"/>
    <trip id="truck38" type="truck_truck" depart="72.67" departLane="best" from="35844834#10" to="-35844843#1"/>
    <trip id="truck39" type="truck_truck" depart="74.59" departLane="best" from="271763338#3" to="-35845309"/>
    <trip id="truck40" type="truck_truck" depart="76.50" departLane="best" from="-302363668#8" to="-35854178#6"/>
    <trip id="truck41" type="truck_truck" depart="78.41" departLane="best" from="-35854178#6" to="-35844661"/>
    <trip id="truck42" type="truck_truck" depart="80.32" departLane="best" from="-98695614#0" to="-136382520#8"/>
    <trip id="truck43" type="truck_truck" depart="82.24" departLane="best" from="-316798044#7" to="-138288152#1"/>
    <trip id="truck44" type="truck_truck" depart="84.15" departLane="best" from="-35843019#3" to="35843544#2"/>
    <trip id="truck45" type="truck_truck" depart="86.06" departLane="best" from="35845424#8" to="581838991"/>
    <trip id="truck47" type="truck_truck" depart="89.89" departLane="best" from="984246120#2" to="201662464#3"/>
    <trip id="truck48" type="truck_truck" depart="91.80" departLane="best" from="-591307588#3" to="35853664#2"/>
    <trip id="truck49" type="truck_truck" depart="93.71" departLane="best" departSpeed="max" from="-108738845" to="35844615#2"/>
    <trip id="truck51" type="truck_truck" depart="97.54" departLane="best" from="35844834#14" to="35843779#0"/>
    <trip id="truck52" type="truck_truck" depart="99.45" departLane="best" from="-35843020#0" to="713151825#1"/>
    <trip id="truck53" type="truck_truck" depart="101.36" departLane="best" departSpeed="max" from="-594065761" to="-569365958#3"/>
    <trip id="truck54" type="truck_truck" depart="103.27" departLane="best" from="-35853675#11" to="-35845414#1"/>
    <trip id="truck55" type="truck_truck" depart="105.19" departLane="best" from="-125578297#1" to="35844251#1"/>
    <trip id="truck56" type="truck_truck" depart="107.10" departLane="best" from="371237120#5" to="35853675#0"/>
    <trip id="truck57" type="truck_truck" depart="109.01" departLane="best" from="-35845427#1" to="35843777"/>
    <trip id="truck58" type="truck_truck" depart="110.92" departLane="best" from="35843019#6" to="-35843825#0"/>
    <trip id="truck59" type="truck_truck" depart="112.84" departLane="best" from="35844843#2" to="271754881#1"/>
    <trip id="truck60" type="truck_truck" depart="114.75" departLane="best" from="35845312#11" to="224826613"/>
    <trip id="truck61" type="truck_truck" depart="116.66" departLane="best" from="-115281711#0" to="42941553#8"/>
    <trip id="truck62" type="truck_truck" depart="118.57" departLane="best" from="-35853675#17" to="35846479#0"/>
    <trip id="truck63" type="truck_truck" depart="120.49" departLane="best" from="-35845986#7" to="-172336086"/>
    <trip id="truck64" type="truck_truck" depart="122.40" departLane="best" from="-35853675#16" to="540537300#7"/>
    <trip id="truck65" type="truck_truck" depart="124.31" departLane="best" from="-302363668#7" to="125586592#4"/>
    <trip id="truck66" type="truck_truck" depart="126.22" departLane="best" from="-145659797#0" to="35844866#1"/>
    <trip id="truck67" type="truck_truck" depart="128.14" departLane="best" departSpeed="max" from="35844866#0" to="-35843556#1"/>
    <trip id="truck68" type="truck_truck" depart="130.05" departLane="best" from="984872684" to="272745145"/>
    <trip id="truck69" type="truck_truck" depart="131.96" departLane="best" from="-35844834#10" to="35853675#14"/>
    <trip id="truck70" type="truck_truck" depart="133.87" departLane="best" departSpeed="max" from="-45638513#2" to="-35844621#0"/>
    <trip id="truck71" type="truck_truck" depart="135.79" departLane="best" from="140090319#1" to="35844679#1"/>
    <trip id="truck72" type="truck_truck" depart="137.70" departLane="best" departSpeed="max" from="-35843854" to="-35846421#0"/>
    <trip id="truck73" type="truck_truck" depart="139.61" departLane="best" from="-984246120#0" to="-35843804#0"/>
    <trip id="truck75" type="truck_truck" depart="143.44" departLane="best" departSpeed="max" from="-35843196#1" to="35844685#6"/>
    <trip id="truck76" type="truck_truck" depart="145.35" departLane="best" from="-35846390#7" to="35843019#3"/>
    <trip id="truck77" type="truck_truck" depart="147.26" departLane="best" departSpeed="max" from="-159940587#1" to="35843556#0"/>
    <trip id="truck78" type="truck_truck" depart="149.17" departLane="best" from="35844587#2" to="366770406#1"/>
    <trip id="truck79" type="truck_truck" depart="151.09" departLane="best" from="-35846631#3" to="302363668#4"/>
    <trip id="truck80" type="truck_truck" depart="153.00" departLane="best" from="-35844615#2" to="35843821"/>
    <trip id="truck81" type="truck_truck" depart="154.91" departLane="best" from="-35844251#0" to="-35843561#1"/>
    <trip id="truck82" type="truck_truck" depart="156.82" departLane="best" departSpeed="max" from="43793796#0" to="327947721#0"/>
    <trip id="truck83" type="truck_truck" depart="158.74" departLane="best" from="-984246117#1" to="35845424#13"/>
    <trip id="truck84" type="truck_truck" depart="160.65" departLane="best" from="35846334#0" to="-35844319"/>
    <trip id="truck85" type="truck_truck" depart="162.56" departLane="best" departSpeed="max" from="-327947729#3" to="694707003#0"/>
    <trip id="truck86" type="truck_truck" depart="164.47" departLane="best" departSpeed="max" from="-45638513#2" to="1113105620#2"/>
    <trip id="truck87" type="truck_truck" depart="166.39" departLane="best" departSpeed="max" from="35844631#0" to="35843838#0"/>
    <trip id="truck88" type="truck_truck" depart="168.30" departLane="best" from="739572904#0" to="-35843020#1"/>
    <trip id="truck89" type="truck_truck" depart="170.21" departLane="best" departSpeed="max" from="-364201946#3" to="-35846637#2"/>
    <trip id="truck90" type="truck_truck" depart="172.12" departLane="best" from="-35846642#0" to="35844857#2"/>
    <trip id="truck91" type="truck_truck" depart="174.04" departLane="best" from="-447231453#4" to="35845986#24"/>
    <trip id="truck92" type="truck_truck" depart="175.95" departLane="best" from="-35844685#3" to="42941539#4"/>
    <trip id="truck93" type="truck_truck" depart="177.86" departLane="best" from="-573176749#3" to="35853664#4"/>
    <trip id="truck94" type="truck_truck" depart="179.77" departLane="best" departSpeed="max" from="271739792#0" to="-140090319#0"/>
    <trip id="truck95" type="truck_truck" depart="181.69" departLane="best" from="-988198555#2" to="-35846534#2"/>
    <trip id="truck97" type="truck_truck" depart="185.51" departLane="best" from="-35842986#0" to="35843859#1"/>
    <trip id="truck98" type="truck_truck" depart="187.42" departLane="best" from="-108738534#0" to="-35844631#0"/>
    <trip id="truck99" type="truck_truck" depart="189.34" departLane="best" from="364196710#4" to="-172336086"/>
    <trip id="truck100" type="truck_truck" depart="191.25" departLane="best" from="-35853675#15" to="778590557#3"/>
    <trip id="truck101" type="truck_truck" depart="193.16" departLane="best" from="-694707003#0" to="-591307586#1"/>
    <trip id="truck102" type="truck_truck" depart="195.07" departLane="best" departSpeed="max" from="547572456#0" to="98695614#0"/>
    <trip id="truck103" type="truck_truck" depart="196.99" departLane="best" from="271754880#0" to="35844603#1"/>
    <trip id="truck104" type="truck_truck" depart="198.90" departLane="best" from="-35843556#5" to="-35846373#1"/>
    <trip id="truck106" type="truck_truck" depart="202.72" departLane="best" from="-141460115#1" to="35844834#10"/>
    <trip id="truck107" type="truck_truck" depart="204.63" departLane="best" from="136563963#3" to="349757784#3"/>
    <trip id="truck108" type="truck_truck" depart="206.55" departLane="best" from="125586592#3" to="35851564#2"/>
    <trip id="truck109" type="truck_truck" depart="208.46" departLane="best" from="35843561#2" to="591307587#2"/>
    <trip id="truck110" type="truck_truck" depart="210.37" departLane="best" from="302363551#3" to="-35844293#0"/>
    <trip id="truck111" type="truck_truck" depart="212.28" departLane="best" from="-327947729#2" to="35843838#4"/>
    <trip id="truck112" type="truck_truck" depart="214.20" departLane="best" from="-35844603#0" to="-35843533#1"/>
    <trip id="truck113" type="truck_truck" depart="216.11" departLane="best" from="-35853682#5" to="-35844843#0"/>
    <trip id="truck114" type="truck_truck" depart="218.02" departLane="best" from="-327947729#1" to="35843535#4"/>
    <trip id="truck115" type="truck_truck" depart="219.93" departLane="best" from="-43793796#3" to="349757784#1"/>
    <trip id="truck116" type="truck_truck" depart="221.85" departLane="best" from="136382520#0" to="45638513#1"/>
    <trip id="truck117" type="truck_truck" depart="223.76" departLane="best" from="-35843861#11" to="-35844594#0"/>
    <trip id="truck118" type="truck_truck" depart="225.67" departLane="best" from="-35844621#0" to="-43793796#0"/>
    <trip id="truck119" type="truck_truck" depart="227.58" departLane="best" from="35843840#0" to="35846379#0"/>
    <trip id="truck120" type="truck_truck" depart="229.50" departLane="best" departSpeed="max" from="-35846327#3" to="35844834#3"/>
    <trip id="truck121" type="truck_truck" depart="231.41" departLane="best" departSpeed="max" from="-159940587#1" to="108738534#3"/>
    <trip id="truck122" type="truck_truck" depart="233.32" departLane="best" from="-201662464#1" to="-35844626#1"/>
    <trip id="truck123" type="truck_truck" depart="235.23" departLane="best" from="35844834#11" to="447231453#3"/>
    <trip id="truck124" type="truck_truck" depart="237.15" departLane="best" from="-35853675#21" to="-35853675#3"/>
    <trip id="truck125" type="truck_truck" depart="239.06" departLane="best" departSpeed="max" from="-35853664#4" to="-35843838#0"/>
    <trip id="truck126" type="truck_truck" depart="240.97" departLane="best" departSpeed="max" from="35846421#0" to="35844487#2"/>
    <trip id="truck127" type="truck_truck" depart="242.88" departLane="best" from="-35843043#0" to="787231291#1"/>
    <trip id="truck128" type="truck_truck" depart="244.80" departLane="best" from="-35843800#0" to="-115281711#0"/>
    <trip id="truck129" type="truck_truck" depart="246.71" departLane="best" departSpeed="max" from="35846373#0" to="35846373#8"/>
    <trip id="truck130" type="truck_truck" depart="248.62" departLane="best" from="35843820#1" to="48049173#2"/>
    <trip id="truck131" type="truck_truck" depart="250.53" departLane="best" from="35843483#1" to="-35843492#2"/>
    <trip id="truck132" type="truck_truck" depart="252.45" departLane="best" from="-35842986#0" to="272759163"/>
    <trip id="truck133" type="truck_truck" depart="254.36" departLane="best" departSpeed="max" from="-35844851" to="35843204#3"/>
    <trip id="truck134" type="truck_truck" depart="256.27" departLane="best" from="-35843537#0" to="35845414#3"/>
    <trip id="truck135" type="truck_truck" depart="258.18" departLane="best" from="1113105620#2" to="364201946#3"/>
    <trip id="truck136" type="truck_truck" depart="260.10" departLane="best" from="35846537#0" to="-349757784#5"/>
    <trip id="truck137" type="truck_truck" depart="262.01" departLane="best" departSpeed="max" from="-45638513#2" to="35845986#2"/>
    <trip id="truck138" type="truck_truck" depart="263.92" departLane="best" departSpeed="max" from="-108738532#4" to="35844894#6"/>
    <trip id="truck139" type="truck_truck" depart="265.83" departLane="best" from="35843544#0" to="35844894#5"/>
    <trip id="truck140" type="truck_truck" depart="267.75" departLane="best" departSpeed="max" from="35844690" to="272759162#2"/>
    <trip id="truck141" type="truck_truck" depart="269.66" departLane="best" from="-48049173#4" to="-115281723"/>
    <trip id="truck142" type="truck_truck" depart="271.57" departLane="best" departSpeed="max" from="-224826613" to="35853680#4"/>
    <trip id="truck143" type="truck_truck" depart="273.48" departLane="best" departSpeed="max" from="362229454#0" to="271763338#6"/>
    <trip id="truck144" type="truck_truck" depart="275.40" departLane="best" departSpeed="max" from="35846427" to="-349757782"/>
    <trip id="truck145" type="truck_truck" depart="277.31" departLane="best" from="-35845986#9" to="35854190"/>
    <trip id="truck146" type="truck_truck" depart="279.22" departLane="best" from="-35845986#16" to="35853664#2"/>
    <trip id="truck147" type="truck_truck" depart="281.13" departLane="best" from="35854190" to="-35844608#1"/>
    <trip id="truck149" type="truck_truck" depart="284.96" departLane="best" from="35845312#15" to="35853680#4"/>
    <trip id="truck150" type="truck_truck" depart="286.87" departLane="best" from="-371237120#4" to="35843537#2"/>
    <trip id="truck151" type="truck_truck" depart="288.78" departLane="best" from="-35843556#4" to="42941553#9"/>
    <trip id="truck152" type="truck_truck" depart="290.70" departLane="best" departSpeed="max" from="35853616#0" to="737281059#1"/>
    <trip id="truck153" type="truck_truck" depart="292.61" departLane="best" from="35846356" to="35853675#9"/>
    <trip id="truck154" type="truck_truck" depart="294.52" departLane="best" from="-115580218#2" to="35844713#0"/>
    <trip id="truck155" type="truck_truck" depart="296.43" departLane="best" departSpeed="max" from="-35846379#5" to="-43793796#2"/>
    <trip id="truck156" type="truck_truck" depart="298.35" departLane="best" from="35846356" to="35845424#1"/>
    <trip id="truck157" type="truck_truck" depart="300.26" departLane="best" from="35853674#0" to="35853662#2"/>
    <trip id="truck158" type="truck_truck" depart="302.17" departLane="best" from="35844512#1" to="35846373#5"/>
    <trip id="truck159" type="truck_truck" depart="304.08" departLane="best" from="713272111" to="35846390#8"/>
    <trip id="truck160" type="truck_truck" depart="306.00" departLane="best" from="-35845986#15" to="35844708#1"/>
    <trip id="truck162" type="truck_truck" depart="309.82" departLane="best" from="-35846373#8" to="35853668#2"/>
    <trip id="truck163" type="truck_truck" depart="311.73" departLane="best" from="591307587#1" to="35845986#3"/>
    <trip id="truck164" type="truck_truck" depart="313.65" departLane="best" from="35843556#6" to="-447231453#0"/>
    <trip id="truck166" type="truck_truck" depart="317.47" departLane="best" departSpeed="max" from="447231453#0" to="-35843492#2"/>
    <trip id="truck167" type="truck_truck" depart="319.38" departLane="best" from="-591307588#1" to="35844251#1"/>
    <trip id="truck168" type="truck_truck" depart="321.30" departLane="best" from="573177534" to="-35845414#6"/>
    <trip id="truck169" type="truck_truck" depart="323.21" departLane="best" from="-35843019#0" to="713151825#1"/>
    <trip id="truck170" type="truck_truck" depart="325.12" departLane="best" departSpeed="max" from="35844631#0" to="-35846427"/>
    <trip id="truck171" type="truck_truck" depart="327.03" departLane="best" from="35843019#0" to="35844667#1"/>
    <trip id="truck172" type="truck_truck" depart="328.95" departLane="best" from="-35853675#3" to="-328021285#2"/>
    <trip id="truck173" type="truck_truck" depart="330.86" departLane="best" from="-35844721#1" to="35844549#2"/>
    <trip id="truck174" type="truck_truck" depart="332.77" departLane="best" from="-108738532#3" to="42941542#0"/>
    <trip id="truck175" type="truck_truck" depart="334.68" departLane="best" departSpeed="max" from="140090319#0" to="-35844608#1"/>
    <trip id="truck176" type="truck_truck" depart="336.60" departLane="best" departSpeed="max" from="35844690" to="35843825#1"/>
    <trip id="truck177" type="truck_truck" depart="338.51" departLane="best" departSpeed="max" from="-35853662#2" to="-302363668#2"/>
    <trip id="truck178" type="truck_truck" depart="340.42" departLane="best" from="35843825#0" to="-35846563#0"/>
    <trip id="truck179" type="truck_truck" depart="342.33" departLane="best" from="35844592#6" to="-35846379#1"/>
    <trip id="truck180" type="truck_truck" depart="344.25" departLane="best" from="-35846315#0" to="-540537300#1"/>
    <trip id="truck181" type="truck_truck" depart="346.16" departLane="best" departSpeed="max" from="-364201946#3" to="-35846373#0"/>
    <trip id="truck182" type="truck_truck" depart="348.07" departLane="best" departSpeed="max" from="-35843358#1" to="-569365958#4"/>
    <trip id="truck183" type="truck_truck" depart="349.98" departLane="best" departSpeed="max" from="447231453#0" to="35843838#4"/>
    <trip id="truck184" type="truck_truck" depart="351.90" departLane="best" departSpeed="max" from="362229454#0" to="-35843531"/>
    <trip id="truck185" type="truck_truck" depart="353.81" departLane="best" from="-35845986#14" to="272745139"/>
    <trip id="truck186" type="truck_truck" depart="355.72" departLane="best" from="-108738531" to="-35846334#1"/>
    <trip id="truck188" type="truck_truck" depart="359.55" departLane="best" from="35843802" to="108738845"/>
    <trip id="truck189" type="truck_truck" depart="361.46" departLane="best" from="569365958#4" to="-35844631#0"/>
    <trip id="truck190" type="truck_truck" depart="363.37" departLane="best" from="-984246118" to="-364196710#2"/>
    <trip id="truck191" type="truck_truck" depart="365.28" departLane="best" from="-35845986#16" to="-35843861#2"/>
    <trip id="truck193" type="truck_truck" depart="369.11" departLane="best" from="-35843535#2" to="-35846590"/>
    <trip id="truck194" type="truck_truck" depart="371.02" departLane="best" from="35846373#2" to="35844834#2"/>
    <trip id="truck195" type="truck_truck" depart="372.93" departLane="best" from="35843840#3" to="35844685#6"/>
    <trip id="truck196" type="truck_truck" depart="374.85" departLane="best" from="-35843840#3" to="133057881#2"/>
    <trip id="truck197" type="truck_truck" depart="376.76" departLane="best" from="-35844674#0" to="115281718#1"/>
    <trip id="truck198" type="truck_truck" depart="378.67" departLane="best" departSpeed="max" from="35846554#0" to="302363668#9"/>
    <trip id="truck199" type="truck_truck" depart="380.58" departLane="best" from="-35843838#2" to="35844251#2"/>
    <trip id="truck200" type="truck_truck" depart="382.50" departLane="best" departSpeed="max" from="115281723" to="-35844834#9"/>
    <trip id="truck201" type="truck_truck" depart="384.41" departLane="best" from="35843804#2" to="-1113105620#3"/>
    <trip id="truck202" type="truck_truck" depart="386.32" departLane="best" from="35844758#0" to="35844894#6"/>
    <trip id="truck203" type="truck_truck" depart="388.23" departLane="best" from="-351155552" to="-591307586#6"/>
    <trip id="truck204" type="truck_truck" depart="390.15" departLane="best" from="-35843811#0" to="-591307586#3"/>
    <trip id="truck205" type="truck_truck" depart="392.06" departLane="best" from="-133270585#3" to="-140090319#0"/>
    <trip id="truck206" type="truck_truck" depart="393.97" departLane="best" from="-35844685#1" to="35846637#0"/>
    <trip id="truck207" type="truck_truck" depart="395.88" departLane="best" from="-696018381#0" to="35846320#4"/>
    <trip id="truck208" type="truck_truck" depart="397.80" departLane="best" departSpeed="max" from="35843830#0" to="787231291#1"/>
    <trip id="truck209" type="truck_truck" depart="399.71" departLane="best" from="328021285#1" to="547572456#8"/>
    <trip id="truck210" type="truck_truck" depart="401.62" departLane="best" from="35854172#10" to="-35843483#0"/>
    <trip id="truck211" type="truck_truck" depart="403.53" departLane="best" from="35844592#5" to="134927682#5"/>
    <trip id="truck212" type="truck_truck" depart="405.45" departLane="best" from="35846408#4" to="272745139"/>
    <trip id="truck213" type="truck_truck" depart="407.36" departLane="best" from="35854178#4" to="35844758#0"/>
    <trip id="truck214" type="truck_truck" depart="409.27" departLane="best" from="-984246120#2" to="-35844884#5"/>
    <trip id="truck215" type="truck_truck" depart="411.18" departLane="best" departSpeed="max" from="-35844679#1" to="-35843773#2"/>
    <trip id="truck216" type="truck_truck" depart="413.09" departLane="best" departSpeed="max" from="35844866#0" to="-138288152#4"/>
    <trip id="truck217" type="truck_truck" depart="415.01" departLane="best" from="35843492#2" to="35845986#15"/>
    <trip id="truck218" type="truck_truck" depart="416.92" departLane="best" from="-291492642#0" to="-35846327#2"/>
    <trip id="truck219" type="truck_truck" depart="418.83" departLane="best" departSpeed="max" from="141460115#0" to="35843791#0"/>
    <trip id="truck220" type="truck_truck" depart="420.74" departLane="best" from="-35844592#5" to="35844251#0"/>
    <trip id="truck222" type="truck_truck" depart="424.57" departLane="best" from="-371237121#0" to="271762500#0"/>
    <trip id="truck223" type="truck_truck" depart="426.48" departLane="best" from="-411126418" to="-35844594#0"/>
    <trip id="truck224" type="truck_truck" depart="428.39" departLane="best" from="-447225627#1" to="364201946#3"/>
    <trip id="truck225" type="truck_truck" depart="430.31" departLane="best" from="-302363668#7" to="35844251#2"/>
    <trip id="truck226" type="truck_truck" depart="432.22" departLane="best" departSpeed="max" from="35846590" to="35844884#3"/>
    <trip id="truck227" type="truck_truck" depart="434.13" departLane="best" from="-35853675#18" to="1113105620#3"/>
    <trip id="truck228" type="truck_truck" depart="436.04" departLane="best" from="35846554#1" to="35844834#8"/>
    <trip id="truck229" type="truck_truck" depart="437.96" departLane="best" departSpeed="max" from="35846568#0" to="-569365958#2"/>
    <trip id="truck230" type="truck_truck" depart="439.87" departLane="best" from="-43793796#3" to="35844834#1"/>
    <trip id="truck231" type="truck_truck" depart="441.78" departLane="best" from="-35844342#1" to="-35844661"/>
    <trip id="truck232" type="truck_truck" depart="443.69" departLane="best" from="547572456#4" to="133270574#9"/>
    <trip id="truck233" type="truck_truck" depart="445.61" departLane="best" from="-35846390#3" to="-35843840#3"/>
    <trip id="truck234" type="truck_truck" depart="447.52" departLane="best" departSpeed="max" from="-364201946#3" to="-35843859#0"/>
    <trip id="truck235" type="truck_truck" depart="449.43" departLane="best" from="-787231291#0" to="-35843551#1"/>
    <trip id="truck236" type="truck_truck" depart="451.34" departLane="best" from="-35843469#1" to="133270574#5"/>
    <trip id="truck237" type="truck_truck" depart="453.26" departLane="best" departSpeed="max" from="-35853682#6" to="302363668#6"/>
    <trip id="truck238" type="truck_truck" depart="455.17" departLane="best" from="-115580219#0" to="35843784"/>
    <trip id="truck239" type="truck_truck" depart="457.08" departLane="best" from="-35843492#2" to="108738843"/>
    <trip id="truck240" type="truck_truck" depart="458.99" departLane="best" departSpeed="max" from="-35843887" to="-35846551#2"/>
    <trip id="truck241" type="truck_truck" depart="460.91" departLane="best" from="-35844708#2" to="-327947721#3"/>
    <trip id="truck242" type="truck_truck" depart="462.82" departLane="best" from="-115281711#0" to="271754881#1"/>
    <trip id="truck243" type="truck_truck" depart="464.73" departLane="best" from="-988198555#3" to="35853674#2"/>
    <trip id="truck244" type="truck_truck" depart="466.64" departLane="best" from="35843791#1" to="35845414#6"/>
    <trip id="truck245" type="truck_truck" depart="468.56" departLane="best" from="35843791#4" to="35844834#9"/>
    <trip id="truck246" type="truck_truck" depart="470.47" departLane="best" from="-540537300#1" to="-35844512#6"/>
    <trip id="truck247" type="truck_truck" depart="472.38" departLane="best" departSpeed="max" from="-115281711#1" to="-35843820#2"/>
    <trip id="truck248" type="truck_truck" depart="474.29" departLane="best" from="-35843204#4" to="35843821"/>