<?xml version="1.0" encoding="UTF-8"?>

<!-- generated on 2023-07-14 15:29:36.414399 by generateContinuousRerouters.py v1_18_0+0000-03ecfdea036
  options: -n map.net.xml <doubleminus>end 10000 -o rerouter.add.xml
-->

<additional xmlns:xsi="http://www.w3.org/2001/XMLSchema-instance" xsi:noNamespaceSchemaLocation="http://sumo.dlr.de/xsd/additional_file.xsd">
    <route id="-165473832#1_-165473832#0" edges="-165473832#1 -165473832#0 165473832#0"/>
    <route id="-165473832#1_-420590067" edges="-165473832#1 -420590067 420590067"/>
    <rerouter id="rr_-165473832#1" edges="-165473832#1">
        <interval begin="0" end="10000">
            <routeProbReroute id="-165473832#1_-165473832#0" probability="50.0"/>
            <routeProbReroute id="-165473832#1_-420590067" probability="30.0"/>
        </interval>
    </rerouter>
    <route id="-420590065_-165473832#0" edges="-420590065 -165473832#0 165473832#0"/>
    <route id="-420590065_-420590067" edges="-420590065 -420590067 420590067"/>
    <route id="-420590065_165473832#1" edges="-420590065 165473832#1"/>
    <rerouter id="rr_-420590065" edges="-420590065">
        <interval begin="0" end="10000">
            <routeProbReroute id="-420590065_-165473832#0" probability="20.0"/>
            <routeProbReroute id="-420590065_-420590067" probability="50.0"/>
            <routeProbReroute id="-420590065_165473832#1" probability="30.0"/>
        </interval>
    </rerouter>
    <route id="165473832#0_-420590067" edges="165473832#0 -420590067 420590067"/>
    <route id="165473832#0_165473832#1" edges="165473832#0 165473832#1"/>
    <rerouter id="rr_165473832#0" edges="165473832#0">
        <interval begin="0" end="10000">
            <routeProbReroute id="165473832#0_-420590067" probability="20.0"/>
            <routeProbReroute id="165473832#0_165473832#1" probability="50.0"/>
        </interval>
    </rerouter>
    <route id="420590067_-165473832#0" edges="420590067 -165473832#0 165473832#0"/>
    <route id="420590067_165473832#1" edges="420590067 165473832#1"/>
    <rerouter id="rr_420590067" edges="420590067">
        <interval begin="0" end="10000">
            <routeProbReroute id="420590067_-165473832#0" probability="30.0"/>
            <routeProbReroute id="420590067_165473832#1" probability="20.0"/>
        </interval>
    </rerouter>
    <route id="-165473832#2_-165473832#1" edges="-165473832#2 -165473832#1"/>
    <route id="-165473832#2_-577976192#4" edges="-165473832#2 -577976192#4"/>
    <route id="-165473832#2_577976192#5" edges="-165473832#2 577976192#5"/>
    <rerouter id="rr_-165473832#2" edges="-165473832#2">
        <interval begin="0" end="10000">
            <routeProbReroute id="-165473832#2_-165473832#1" probability="50.0"/>
            <routeProbReroute id="-165473832#2_-577976192#4" probability="30.0"/>
            <routeProbReroute id="-165473832#2_577976192#5" probability="20.0"/>
        </interval>
    </rerouter>
    <route id="-577976192#5_-165473832#1" edges="-577976192#5 -165473832#1"/>
    <route id="-577976192#5_-577976192#4" edges="-577976192#5 -577976192#4"/>
    <route id="-577976192#5_165473832#2" edges="-577976192#5 165473832#2"/>
    <rerouter id="rr_-577976192#5" edges="-577976192#5">
        <interval begin="0" end="10000">
            <routeProbReroute id="-577976192#5_-165473832#1" probability="20.0"/>
            <routeProbReroute id="-577976192#5_-577976192#4" probability="50.0"/>
            <routeProbReroute id="-577976192#5_165473832#2" probability="30.0"/>
        </interval>
    </rerouter>
    <route id="165473832#1_-577976192#4" edges="165473832#1 -577976192#4"/>
    <route id="165473832#1_165473832#2" edges="165473832#1 165473832#2"/>
    <route id="165473832#1_577976192#5" edges="165473832#1 577976192#5"/>
    <rerouter id="rr_165473832#1" edges="165473832#1">
        <interval begin="0" end="10000">
            <routeProbReroute id="165473832#1_-577976192#4" probability="20.0"/>
            <routeProbReroute id="165473832#1_165473832#2" probability="50.0"/>
            <routeProbReroute id="165473832#1_577976192#5" probability="30.0"/>
        </interval>
    </rerouter>
    <route id="577976192#4_-165473832#1" edges="577976192#4 -165473832#1"/>
    <route id="577976192#4_165473832#2" edges="577976192#4 165473832#2"/>
    <route id="577976192#4_577976192#5" edges="577976192#4 577976192#5"/>
    <rerouter id="rr_577976192#4" edges="577976192#4">
        <interval begin="0" end="10000">
            <routeProbReroute id="577976192#4_-165473832#1" probability="30.0"/>
            <routeProbReroute id="577976192#4_165473832#2" probability="20.0"/>
            <routeProbReroute id="577976192#4_577976192#5" probability="50.0"/>
        </interval>
    </rerouter>
    <route id="-165473832#3_-165473832#2" edges="-165473832#3 -165473832#2"/>
    <route id="-165473832#3_-196116967#0" edges="-165473832#3 -196116967#0"/>
    <route id="-165473832#3_196116967#1" edges="-165473832#3 196116967#1"/>
    <rerouter id="rr_-165473832#3" edges="-165473832#3">
        <interval begin="0" end="10000">
            <routeProbReroute id="-165473832#3_-165473832#2" probability="50.0"/>
            <routeProbReroute id="-165473832#3_-196116967#0" probability="30.0"/>
            <routeProbReroute id="-165473832#3_196116967#1" probability="20.0"/>
        </interval>
    </rerouter>
    <route id="-196116967#1_-165473832#2" edges="-196116967#1 -165473832#2"/>
    <route id="-196116967#1_-196116967#0" edges="-196116967#1 -196116967#0"/>
    <route id="-196116967#1_165473832#3" edges="-196116967#1 165473832#3 524558206#0"/>
    <rerouter id="rr_-196116967#1" edges="-196116967#1">
        <interval begin="0" end="10000">
            <routeProbReroute id="-196116967#1_-165473832#2" probability="20.0"/>
            <routeProbReroute id="-196116967#1_-196116967#0" probability="50.0"/>
            <routeProbReroute id="-196116967#1_165473832#3" probability="30.0"/>
        </interval>
    </rerouter>
    <route id="165473832#2_-196116967#0" edges="165473832#2 -196116967#0"/>
    <route id="165473832#2_165473832#3" edges="165473832#2 165473832#3 524558206#0"/>
    <route id="165473832#2_196116967#1" edges="165473832#2 196116967#1"/>
    <rerouter id="rr_165473832#2" edges="165473832#2">
        <interval begin="0" end="10000">
            <routeProbReroute id="165473832#2_-196116967#0" probability="20.0"/>
            <routeProbReroute id="165473832#2_165473832#3" probability="50.0"/>
            <routeProbReroute id="165473832#2_196116967#1" probability="30.0"/>
        </interval>
    </rerouter>
    <route id="196116967#0_-165473832#2" edges="196116967#0 -165473832#2"/>
    <route id="196116967#0_165473832#3" edges="196116967#0 165473832#3 524558206#0"/>
    <route id="196116967#0_196116967#1" edges="196116967#0 196116967#1"/>
    <rerouter id="rr_196116967#0" edges="196116967#0">
        <interval begin="0" end="10000">
            <routeProbReroute id="196116967#0_-165473832#2" probability="30.0"/>
            <routeProbReroute id="196116967#0_165473832#3" probability="20.0"/>
            <routeProbReroute id="196116967#0_196116967#1" probability="50.0"/>
        </interval>
    </rerouter>
    <route id="165473832#3_524558206#0" edges="165473832#3 524558206#0"/>
    <route id="-196116967#0_-455687907#3" edges="-196116967#0 -455687907#3"/>
    <route id="-196116967#0_542225570" edges="-196116967#0 542225570"/>
    <rerouter id="rr_-196116967#0" edges="-196116967#0">
        <interval begin="0" end="10000">
            <routeProbReroute id="-196116967#0_-455687907#3" probability="50.0"/>
            <routeProbReroute id="-196116967#0_542225570" probability="50.0"/>
        </interval>
    </rerouter>
    <route id="243056524#1_-455687907#3" edges="243056524#1 -455687907#3"/>
    <route id="243056524#1_196116967#0" edges="243056524#1 196116967#0"/>
    <route id="243056524#1_542225570" edges="243056524#1 542225570"/>
    <rerouter id="rr_243056524#1" edges="243056524#1">
        <interval begin="0" end="10000">
            <routeProbReroute id="243056524#1_-455687907#3" probability="20.0"/>
            <routeProbReroute id="243056524#1_196116967#0" probability="30.0"/>
            <routeProbReroute id="243056524#1_542225570" probability="20.0"/>
        </interval>
    </rerouter>
    <route id="455687907#3_196116967#0" edges="455687907#3 196116967#0"/>
    <route id="5671257#1_-455687907#3" edges="5671257#1 -455687907#3"/>
    <route id="5671257#1_196116967#0" edges="5671257#1 196116967#0"/>
    <route id="5671257#1_542225570" edges="5671257#1 542225570"/>
    <rerouter id="rr_5671257#1" edges="5671257#1">
        <interval begin="0" end="10000">
            <routeProbReroute id="5671257#1_-455687907#3" probability="30.0"/>
            <routeProbReroute id="5671257#1_196116967#0" probability="20.0"/>
            <routeProbReroute id="5671257#1_542225570" probability="30.0"/>
        </interval>
    </rerouter>
    <route id="-196116967#2_-196116967#1" edges="-196116967#2 -196116967#1"/>
    <route id="-196116967#2_5673106#3" edges="-196116967#2 5673106#3"/>
    <rerouter id="rr_-196116967#2" edges="-196116967#2">
        <interval begin="0" end="10000">
            <routeProbReroute id="-196116967#2_-196116967#1" probability="50.0"/>
            <routeProbReroute id="-196116967#2_5673106#3" probability="20.0"/>
        </interval>
    </rerouter>
    <route id="196116967#1_196116967#2" edges="196116967#1 196116967#2"/>
    <route id="196116967#1_5673106#3" edges="196116967#1 5673106#3"/>
    <rerouter id="rr_196116967#1" edges="196116967#1">
        <interval begin="0" end="10000">
            <routeProbReroute id="196116967#1_196116967#2" probability="50.0"/>
            <routeProbReroute id="196116967#1_5673106#3" probability="30.0"/>
        </interval>
    </rerouter>
    <route id="5673106#2_-196116967#1" edges="5673106#2 -196116967#1"/>
    <route id="5673106#2_196116967#2" edges="5673106#2 196116967#2"/>
    <route id="5673106#2_5673106#3" edges="5673106#2 5673106#3"/>
    <rerouter id="rr_5673106#2" edges="5673106#2">
        <interval begin="0" end="10000">
            <routeProbReroute id="5673106#2_-196116967#1" probability="30.0"/>
            <routeProbReroute id="5673106#2_196116967#2" probability="20.0"/>
            <routeProbReroute id="5673106#2_5673106#3" probability="50.0"/>
        </interval>
    </rerouter>
    <route id="-196116967#10_-196116967#9" edges="-196116967#10 -196116967#9"/>
    <route id="-196116967#10_5670656" edges="-196116967#10 5670656"/>
    <rerouter id="rr_-196116967#10" edges="-196116967#10">
        <interval begin="0" end="10000">
            <routeProbReroute id="-196116967#10_-196116967#9" probability="50.0"/>
            <routeProbReroute id="-196116967#10_5670656" probability="20.0"/>
        </interval>
    </rerouter>
    <route id="196116967#9_196116967#10" edges="196116967#9 196116967#10 -196116967#10"/>
    <route id="196116967#9_5670656" edges="196116967#9 5670656"/>
    <rerouter id="rr_196116967#9" edges="196116967#9">
        <interval begin="0" end="10000">
            <routeProbReroute id="196116967#9_196116967#10" probability="50.0"/>
            <routeProbReroute id="196116967#9_5670656" probability="30.0"/>
        </interval>
    </rerouter>
    <route id="-196116967#3_-196116967#2" edges="-196116967#3 -196116967#2"/>
    <route id="-196116967#3_5671685#2" edges="-196116967#3 5671685#2"/>
    <rerouter id="rr_-196116967#3" edges="-196116967#3">
        <interval begin="0" end="10000">
            <routeProbReroute id="-196116967#3_-196116967#2" probability="50.0"/>
            <routeProbReroute id="-196116967#3_5671685#2" probability="30.0"/>
        </interval>
    </rerouter>
    <route id="196116967#2_196116967#3" edges="196116967#2 196116967#3"/>
    <route id="196116967#2_5671685#2" edges="196116967#2 5671685#2"/>
    <rerouter id="rr_196116967#2" edges="196116967#2">
        <interval begin="0" end="10000">
            <routeProbReroute id="196116967#2_196116967#3" probability="50.0"/>
            <routeProbReroute id="196116967#2_5671685#2" probability="20.0"/>
        </interval>
    </rerouter>
    <route id="5671685#1_-196116967#2" edges="5671685#1 -196116967#2"/>
    <route id="5671685#1_196116967#3" edges="5671685#1 196116967#3"/>
    <route id="5671685#1_5671685#2" edges="5671685#1 5671685#2"/>
    <rerouter id="rr_5671685#1" edges="5671685#1">
        <interval begin="0" end="10000">
            <routeProbReroute id="5671685#1_-196116967#2" probability="20.0"/>
            <routeProbReroute id="5671685#1_196116967#3" probability="30.0"/>
            <routeProbReroute id="5671685#1_5671685#2" probability="50.0"/>
        </interval>
    </rerouter>
    <route id="-196116967#4_-196116967#3" edges="-196116967#4 -196116967#3"/>
    <route id="-196116967#4_5670774#3" edges="-196116967#4 5670774#3"/>
    <rerouter id="rr_-196116967#4" edges="-196116967#4">
        <interval begin="0" end="10000">
            <routeProbReroute id="-196116967#4_-196116967#3" probability="50.0"/>
            <routeProbReroute id="-196116967#4_5670774#3" probability="20.0"/>
        </interval>
    </rerouter>
    <route id="196116967#3_196116967#4" edges="196116967#3 196116967#4"/>
    <route id="196116967#3_5670774#3" edges="196116967#3 5670774#3"/>
    <rerouter id="rr_196116967#3" edges="196116967#3">
        <interval begin="0" end="10000">
            <routeProbReroute id="196116967#3_196116967#4" probability="50.0"/>
            <routeProbReroute id="196116967#3_5670774#3" probability="30.0"/>
        </interval>
    </rerouter>
    <route id="5670774#2_-196116967#3" edges="5670774#2 -196116967#3"/>
    <route id="5670774#2_196116967#4" edges="5670774#2 196116967#4"/>
    <route id="5670774#2_5670774#3" edges="5670774#2 5670774#3"/>
    <rerouter id="rr_5670774#2" edges="5670774#2">
        <interval begin="0" end="10000">
            <routeProbReroute id="5670774#2_-196116967#3" probability="30.0"/>
            <routeProbReroute id="5670774#2_196116967#4" probability="20.0"/>
            <routeProbReroute id="5670774#2_5670774#3" probability="50.0"/>
        </interval>
    </rerouter>
    <route id="-196116967#5_-196116967#4" edges="-196116967#5 -196116967#4"/>
    <route id="-196116967#5_5670252#2" edges="-196116967#5 5670252#2"/>
    <rerouter id="rr_-196116967#5" edges="-196116967#5">
        <interval begin="0" end="10000">
            <routeProbReroute id="-196116967#5_-196116967#4" probability="50.0"/>
            <routeProbReroute id="-196116967#5_5670252#2" probability="30.0"/>
        </interval>
    </rerouter>
    <route id="196116967#4_196116967#5" edges="196116967#4 196116967#5"/>
    <route id="196116967#4_5670252#2" edges="196116967#4 5670252#2"/>
    <rerouter id="rr_196116967#4" edges="196116967#4">
        <interval begin="0" end="10000">
            <routeProbReroute id="196116967#4_196116967#5" probability="50.0"/>
            <routeProbReroute id="196116967#4_5670252#2" probability="20.0"/>
        </interval>
    </rerouter>
    <route id="5670252#1_-196116967#4" edges="5670252#1 -196116967#4"/>
    <route id="5670252#1_196116967#5" edges="5670252#1 196116967#5"/>
    <route id="5670252#1_5670252#2" edges="5670252#1 5670252#2"/>
    <rerouter id="rr_5670252#1" edges="5670252#1">
        <interval begin="0" end="10000">
            <routeProbReroute id="5670252#1_-196116967#4" probability="20.0"/>
            <routeProbReroute id="5670252#1_196116967#5" probability="30.0"/>
            <routeProbReroute id="5670252#1_5670252#2" probability="50.0"/>
        </interval>
    </rerouter>
    <route id="-196116967#6_-196116967#5" edges="-196116967#6 -196116967#5"/>
    <route id="-196116967#6_5671119#3" edges="-196116967#6 5671119#3"/>
    <rerouter id="rr_-196116967#6" edges="-196116967#6">
        <interval begin="0" end="10000">
            <routeProbReroute id="-196116967#6_-196116967#5" probability="50.0"/>
            <routeProbReroute id="-196116967#6_5671119#3" probability="20.0"/>
        </interval>
    </rerouter>
    <route id="196116967#5_196116967#6" edges="196116967#5 196116967#6"/>
    <route id="196116967#5_5671119#3" edges="196116967#5 5671119#3"/>
    <rerouter id="rr_196116967#5" edges="196116967#5">
        <interval begin="0" end="10000">
            <routeProbReroute id="196116967#5_196116967#6" probability="50.0"/>
            <routeProbReroute id="196116967#5_5671119#3" probability="30.0"/>
        </interval>
    </rerouter>
    <route id="5671119#2_-196116967#5" edges="5671119#2 -196116967#5"/>
    <route id="5671119#2_196116967#6" edges="5671119#2 196116967#6"/>
    <route id="5671119#2_5671119#3" edges="5671119#2 5671119#3"/>
    <rerouter id="rr_5671119#2" edges="5671119#2">
        <interval begin="0" end="10000">
            <routeProbReroute id="5671119#2_-196116967#5" probability="30.0"/>
            <routeProbReroute id="5671119#2_196116967#6" probability="20.0"/>
            <routeProbReroute id="5671119#2_5671119#3" probability="50.0"/>
        </interval>
    </rerouter>
    <route id="-196116967#7_-196116967#6" edges="-196116967#7 -196116967#6"/>
    <route id="-196116967#7_5672585#2" edges="-196116967#7 5672585#2"/>
    <rerouter id="rr_-196116967#7" edges="-196116967#7">
        <interval begin="0" end="10000">
            <routeProbReroute id="-196116967#7_-196116967#6" probability="50.0"/>
            <routeProbReroute id="-196116967#7_5672585#2" probability="30.0"/>
        </interval>
    </rerouter>
    <route id="196116967#6_196116967#7" edges="196116967#6 196116967#7"/>
    <route id="196116967#6_5672585#2" edges="196116967#6 5672585#2"/>
    <rerouter id="rr_196116967#6" edges="196116967#6">
        <interval begin="0" end="10000">
            <routeProbReroute id="196116967#6_196116967#7" probability="50.0"/>
            <routeProbReroute id="196116967#6_5672585#2" probability="20.0"/>
        </interval>
    </rerouter>
    <route id="5672585#1_-196116967#6" edges="5672585#1 -196116967#6"/>
    <route id="5672585#1_196116967#7" edges="5672585#1 196116967#7"/>
    <route id="5672585#1_5672585#2" edges="5672585#1 5672585#2"/>
    <rerouter id="rr_5672585#1" edges="5672585#1">
        <interval begin="0" end="10000">
            <routeProbReroute id="5672585#1_-196116967#6" probability="20.0"/>
            <routeProbReroute id="5672585#1_196116967#7" probability="30.0"/>
            <routeProbReroute id="5672585#1_5672585#2" probability="50.0"/>
        </interval>
    </rerouter>
    <route id="-196116967#8_-196116967#7" edges="-196116967#8 -196116967#7"/>
    <route id="-196116967#8_254594899" edges="-196116967#8 254594899"/>
    <rerouter id="rr_-196116967#8" edges="-196116967#8">
        <interval begin="0" end="10000">
            <routeProbReroute id="-196116967#8_-196116967#7" probability="50.0"/>
            <routeProbReroute id="-196116967#8_254594899" probability="20.0"/>
        </interval>
    </rerouter>
    <route id="196116967#7_196116967#8" edges="196116967#7 196116967#8"/>
    <route id="196116967#7_254594899" edges="196116967#7 254594899"/>
    <rerouter id="rr_196116967#7" edges="196116967#7">
        <interval begin="0" end="10000">
            <routeProbReroute id="196116967#7_196116967#8" probability="50.0"/>
            <routeProbReroute id="196116967#7_254594899" probability="30.0"/>
        </interval>
    </rerouter>
    <route id="455684727_-196116967#7" edges="455684727 -196116967#7"/>
    <route id="455684727_196116967#8" edges="455684727 196116967#8"/>
    <route id="455684727_254594899" edges="455684727 254594899"/>
    <rerouter id="rr_455684727" edges="455684727">
        <interval begin="0" end="10000">
            <routeProbReroute id="455684727_-196116967#7" probability="30.0"/>
            <routeProbReroute id="455684727_196116967#8" probability="20.0"/>
            <routeProbReroute id="455684727_254594899" probability="50.0"/>
        </interval>
    </rerouter>
    <route id="-196116967#9_-196116967#8" edges="-196116967#9 -196116967#8"/>
    <route id="-196116967#9_5671921#2" edges="-196116967#9 5671921#2"/>
    <rerouter id="rr_-196116967#9" edges="-196116967#9">
        <interval begin="0" end="10000">
            <routeProbReroute id="-196116967#9_-196116967#8" probability="50.0"/>
            <routeProbReroute id="-196116967#9_5671921#2" probability="30.0"/>
        </interval>
    </rerouter>
    <route id="196116967#8_196116967#9" edges="196116967#8 196116967#9"/>
    <route id="196116967#8_5671921#2" edges="196116967#8 5671921#2"/>
    <rerouter id="rr_196116967#8" edges="196116967#8">
        <interval begin="0" end="10000">
            <routeProbReroute id="196116967#8_196116967#9" probability="50.0"/>
            <routeProbReroute id="196116967#8_5671921#2" probability="20.0"/>
        </interval>
    </rerouter>
    <route id="5671921#0_-196116967#8" edges="5671921#0 -196116967#8"/>
    <route id="5671921#0_196116967#9" edges="5671921#0 196116967#9"/>
    <route id="5671921#0_5671921#2" edges="5671921#0 5671921#2"/>
    <rerouter id="rr_5671921#0" edges="5671921#0">
        <interval begin="0" end="10000">
            <routeProbReroute id="5671921#0_-196116967#8" probability="20.0"/>
            <routeProbReroute id="5671921#0_196116967#9" probability="30.0"/>
            <routeProbReroute id="5671921#0_5671921#2" probability="50.0"/>
        </interval>
    </rerouter>
    <route id="-420590061_-420590046" edges="-420590061 -420590046 -420590065"/>
    <route id="-420590061_5671685#0" edges="-420590061 5671685#0"/>
    <rerouter id="rr_-420590061" edges="-420590061">
        <interval begin="0" end="10000">
            <routeProbReroute id="-420590061_-420590046" probability="50.0"/>
            <routeProbReroute id="-420590061_5671685#0" probability="30.0"/>
        </interval>
    </rerouter>
    <route id="-420590046_-420590065" edges="-420590046 -420590065"/>
    <route id="5673106#4_-420590065" edges="5673106#4 -420590065"/>
    <route id="-455687907#3_-455687907#2" edges="-455687907#3 -455687907#2 455687907#0"/>
    <route id="-455687907#3_5671137#1" edges="-455687907#3 5671137#1"/>
    <rerouter id="rr_-455687907#3" edges="-455687907#3">
        <interval begin="0" end="10000">
            <routeProbReroute id="-455687907#3_-455687907#2" probability="50.0"/>
            <routeProbReroute id="-455687907#3_5671137#1" probability="30.0"/>
        </interval>
    </rerouter>
    <route id="455687907#0_455687907#3" edges="455687907#0 455687907#3 196116967#0"/>
    <route id="455687907#0_5671137#1" edges="455687907#0 5671137#1"/>
    <rerouter id="rr_455687907#0" edges="455687907#0">
        <interval begin="0" end="10000">
            <routeProbReroute id="455687907#0_455687907#3" probability="50.0"/>
            <routeProbReroute id="455687907#0_5671137#1" probability="20.0"/>
        </interval>
    </rerouter>
    <route id="5671137#0_-455687907#2" edges="5671137#0 -455687907#2 455687907#0"/>
    <route id="5671137#0_455687907#3" edges="5671137#0 455687907#3 196116967#0"/>
    <route id="5671137#0_5671137#1" edges="5671137#0 5671137#1"/>
    <rerouter id="rr_5671137#0" edges="5671137#0">
        <interval begin="0" end="10000">
            <routeProbReroute id="5671137#0_-455687907#2" probability="20.0"/>
            <routeProbReroute id="5671137#0_455687907#3" probability="30.0"/>
            <routeProbReroute id="5671137#0_5671137#1" probability="50.0"/>
        </interval>
    </rerouter>
    <route id="5672585#0_-577976192#10" edges="5672585#0 -577976192#10"/>
    <route id="5672585#0_5672585#1" edges="5672585#0 5672585#1"/>
    <rerouter id="rr_5672585#0" edges="5672585#0">
        <interval begin="0" end="10000">
            <routeProbReroute id="5672585#0_-577976192#10" probability="20.0"/>
            <routeProbReroute id="5672585#0_5672585#1" probability="50.0"/>
        </interval>
    </rerouter>
    <route id="577976192#10_5672585#1" edges="577976192#10 5672585#1"/>
    <route id="-577976192#10_-577976192#9" edges="-577976192#10 -577976192#9"/>
    <route id="-577976192#10_5671119#4" edges="-577976192#10 5671119#4"/>
    <rerouter id="rr_-577976192#10" edges="-577976192#10">
        <interval begin="0" end="10000">
            <routeProbReroute id="-577976192#10_-577976192#9" probability="50.0"/>
            <routeProbReroute id="-577976192#10_5671119#4" probability="20.0"/>
        </interval>
    </rerouter>
    <route id="5671119#3_-577976192#9" edges="5671119#3 -577976192#9"/>
    <route id="5671119#3_5671119#4" edges="5671119#3 5671119#4"/>
    <route id="5671119#3_577976192#10" edges="5671119#3 577976192#10 5672585#1"/>
    <rerouter id="rr_5671119#3" edges="5671119#3">
        <interval begin="0" end="10000">
            <routeProbReroute id="5671119#3_-577976192#9" probability="30.0"/>
            <routeProbReroute id="5671119#3_5671119#4" probability="50.0"/>
            <routeProbReroute id="5671119#3_577976192#10" probability="20.0"/>
        </interval>
    </rerouter>
    <route id="577976192#9_5671119#4" edges="577976192#9 5671119#4"/>
    <route id="577976192#9_577976192#10" edges="577976192#9 577976192#10 5672585#1"/>
    <rerouter id="rr_577976192#9" edges="577976192#9">
        <interval begin="0" end="10000">
            <routeProbReroute id="577976192#9_5671119#4" probability="30.0"/>
            <routeProbReroute id="577976192#9_577976192#10" probability="50.0"/>
        </interval>
    </rerouter>
    <route id="-577976192#3_-577976192#2" edges="-577976192#3 -577976192#2 577976192#0"/>
    <route id="-577976192#3_5671137#0" edges="-577976192#3 5671137#0"/>
    <rerouter id="rr_-577976192#3" edges="-577976192#3">
        <interval begin="0" end="10000">
            <routeProbReroute id="-577976192#3_-577976192#2" probability="50.0"/>
            <routeProbReroute id="-577976192#3_5671137#0" probability="30.0"/>
        </interval>
    </rerouter>
    <route id="577976192#0_5671137#0" edges="577976192#0 5671137#0"/>
    <route id="577976192#0_577976192#3" edges="577976192#0 577976192#3"/>
    <rerouter id="rr_577976192#0" edges="577976192#0">
        <interval begin="0" end="10000">
            <routeProbReroute id="577976192#0_5671137#0" probability="20.0"/>
            <routeProbReroute id="577976192#0_577976192#3" probability="50.0"/>
        </interval>
    </rerouter>
    <route id="-577976192#4_-577976192#3" edges="-577976192#4 -577976192#3"/>
    <route id="-577976192#4_243056524#1" edges="-577976192#4 243056524#1"/>
    <rerouter id="rr_-577976192#4" edges="-577976192#4">
        <interval begin="0" end="10000">
            <routeProbReroute id="-577976192#4_-577976192#3" probability="50.0"/>
            <routeProbReroute id="-577976192#4_243056524#1" probability="30.0"/>
        </interval>
    </rerouter>
    <route id="243056524#0_-577976192#3" edges="243056524#0 -577976192#3"/>
    <route id="243056524#0_243056524#1" edges="243056524#0 243056524#1"/>
    <route id="243056524#0_577976192#4" edges="243056524#0 577976192#4"/>
    <rerouter id="rr_243056524#0" edges="243056524#0">
        <interval begin="0" end="10000">
            <routeProbReroute id="243056524#0_-577976192#3" probability="20.0"/>
            <routeProbReroute id="243056524#0_243056524#1" probability="50.0"/>
            <routeProbReroute id="243056524#0_577976192#4" probability="30.0"/>
        </interval>
    </rerouter>
    <route id="577976192#3_243056524#1" edges="577976192#3 243056524#1"/>
    <route id="577976192#3_577976192#4" edges="577976192#3 577976192#4"/>
    <rerouter id="rr_577976192#3" edges="577976192#3">
        <interval begin="0" end="10000">
            <routeProbReroute id="577976192#3_243056524#1" probability="20.0"/>
            <routeProbReroute id="577976192#3_577976192#4" probability="50.0"/>
        </interval>
    </rerouter>
    <route id="-577976192#6_-577976192#5" edges="-577976192#6 -577976192#5"/>
    <route id="-577976192#6_5673106#4" edges="-577976192#6 5673106#4 -420590065"/>
    <rerouter id="rr_-577976192#6" edges="-577976192#6">
        <interval begin="0" end="10000">
            <routeProbReroute id="-577976192#6_-577976192#5" probability="50.0"/>
            <routeProbReroute id="-577976192#6_5673106#4" probability="20.0"/>
        </interval>
    </rerouter>
    <route id="5673106#3_-577976192#5" edges="5673106#3 -577976192#5"/>
    <route id="5673106#3_5673106#4" edges="5673106#3 5673106#4 -420590065"/>
    <route id="5673106#3_577976192#6" edges="5673106#3 577976192#6"/>
    <rerouter id="rr_5673106#3" edges="5673106#3">
        <interval begin="0" end="10000">
            <routeProbReroute id="5673106#3_-577976192#5" probability="30.0"/>
            <routeProbReroute id="5673106#3_5673106#4" probability="50.0"/>
            <routeProbReroute id="5673106#3_577976192#6" probability="20.0"/>
        </interval>
    </rerouter>
    <route id="577976192#5_5673106#4" edges="577976192#5 5673106#4 -420590065"/>
    <route id="577976192#5_577976192#6" edges="577976192#5 577976192#6"/>
    <rerouter id="rr_577976192#5" edges="577976192#5">
        <interval begin="0" end="10000">
            <routeProbReroute id="577976192#5_5673106#4" probability="30.0"/>
            <routeProbReroute id="577976192#5_577976192#6" probability="50.0"/>
        </interval>
    </rerouter>
    <route id="-577976192#7_-577976192#6" edges="-577976192#7 -577976192#6"/>
    <route id="-577976192#7_5671685#1" edges="-577976192#7 5671685#1"/>
    <rerouter id="rr_-577976192#7" edges="-577976192#7">
        <interval begin="0" end="10000">
            <routeProbReroute id="-577976192#7_-577976192#6" probability="50.0"/>
            <routeProbReroute id="-577976192#7_5671685#1" probability="30.0"/>
        </interval>
    </rerouter>
    <route id="5671685#0_-577976192#6" edges="5671685#0 -577976192#6"/>
    <route id="5671685#0_5671685#1" edges="5671685#0 5671685#1"/>
    <route id="5671685#0_577976192#7" edges="5671685#0 577976192#7"/>